REMARK SMILES C/C=C(\C)C(=O)O[C@H](C)[C@H]1[C@H](O[C@@H]2O[C@H](CO)[C@@H](O)[C@H](O)[C@H]2O)OC=C(C(=O)OC)[C@H]1CC(=O)O
REMARK SMILES IDX 10 1 11 2 24 3 25 4 26 5 31 6 8 7 9 8 7 9 5 10 6 11 3 12
REMARK SMILES IDX 4 13 2 14 1 15 12 16 13 17 14 18 22 19 15 20 20 21 18 22
REMARK SMILES IDX 23 23 16 25 17 26 21 28 19 30 32 32 33 33 34 34 35 35 27 37
REMARK SMILES IDX 28 38 29 39 30 40
REMARK H PARENT 23 24 17 27 21 29 19 31 35 36
ROOT
ATOM      1  C   UNL     1       0.688  -0.052   0.000  1.00  0.00     0.107 C 
ATOM      2  C   UNL     1      -0.806   0.078   0.000  1.00  0.00     0.316 C 
ATOM      3  O   UNL     1      -1.440   1.438   0.000  1.00  0.00    -0.471 OA
ATOM      4  C   UNL     1      -0.580   2.667   0.000  1.00  0.00     0.202 C 
ATOM      5  C   UNL     1       0.915   2.536   0.000  1.00  0.00     0.076 C 
ATOM      6  C   UNL     1       1.549   1.176   0.000  1.00  0.00     0.054 C 
ENDROOT
BRANCH   1   7
ATOM      7  C   UNL     1       1.322  -1.412   0.000  1.00  0.00     0.183 C 
ATOM      8  C   UNL     1       0.462  -2.641   0.000  1.00  0.00     0.053 C 
BRANCH   7   9
ATOM      9  O   UNL     1       2.817  -1.543   0.000  1.00  0.00    -0.459 OA
BRANCH   9  10
ATOM     10  C   UNL     1       3.450  -2.902   0.000  1.00  0.00     0.333 C 
ATOM     11  O   UNL     1       2.590  -4.131   0.000  1.00  0.00    -0.247 OA
BRANCH  10  12
ATOM     12  C   UNL     1       4.945  -3.033   0.000  1.00  0.00     0.030 C 
ATOM     13  C   UNL     1       5.805  -1.804   0.000  1.00  0.00     0.052 C 
BRANCH  12  14
ATOM     14  C   UNL     1       5.579  -4.392   0.000  1.00  0.00    -0.020 C 
ATOM     15  C   UNL     1       7.073  -4.523   0.000  1.00  0.00     0.036 C 
ENDBRANCH  12  14
ENDBRANCH  10  12
ENDBRANCH   9  10
ENDBRANCH   7   9
ENDBRANCH   1   7
BRANCH   2  16
ATOM     16  O   UNL     1      -1.666  -1.150   0.000  1.00  0.00    -0.310 OA
BRANCH  16  17
ATOM     17  C   UNL     1      -3.161  -1.020   0.000  1.00  0.00     0.286 C 
ATOM     18  O   UNL     1      -3.795   0.340   0.000  1.00  0.00    -0.341 OA
ATOM     19  C   UNL     1      -4.021  -2.248   0.000  1.00  0.00     0.202 C 
ATOM     20  C   UNL     1      -5.289   0.471   0.000  1.00  0.00     0.178 C 
ATOM     21  C   UNL     1      -5.515  -2.118   0.000  1.00  0.00     0.179 C 
ATOM     22  C   UNL     1      -6.149  -0.758   0.000  1.00  0.00     0.177 C 
BRANCH  19  23
ATOM     23  O   UNL     1      -3.387  -3.608   0.000  1.00  0.00    -0.385 OA
ATOM     24  H   UNL     1       0.000   0.000   0.000  1.00  0.00     0.211 HD
ENDBRANCH  19  23
BRANCH  20  25
ATOM     25  C   UNL     1      -5.923   1.830   0.000  1.00  0.00     0.191 C 
BRANCH  25  26
ATOM     26  O   UNL     1      -5.062   3.059   0.000  1.00  0.00    -0.394 OA
ATOM     27  H   UNL     1       0.000   0.000   0.000  1.00  0.00     0.210 HD
ENDBRANCH  25  26
ENDBRANCH  20  25
BRANCH  21  28
ATOM     28  O   UNL     1      -6.376  -3.346   0.000  1.00  0.00    -0.387 OA
ATOM     29  H   UNL     1       0.000   0.000   0.000  1.00  0.00     0.211 HD
ENDBRANCH  21  28
BRANCH  22  30
ATOM     30  O   UNL     1      -7.644  -0.627   0.000  1.00  0.00    -0.387 OA
ATOM     31  H   UNL     1       0.000   0.000   0.000  1.00  0.00     0.211 HD
ENDBRANCH  22  30
ENDBRANCH  16  17
ENDBRANCH   2  16
BRANCH   6  32
ATOM     32  C   UNL     1       3.043   1.046   0.000  1.00  0.00     0.132 C 
BRANCH  32  33
ATOM     33  C   UNL     1       3.903   2.274   0.000  1.00  0.00     0.303 C 
ATOM     34  O   UNL     1       5.398   2.144   0.000  1.00  0.00    -0.252 OA
BRANCH  33  35
ATOM     35  O   UNL     1       3.599   3.210   0.000  1.00  0.00    -0.481 OA
ATOM     36  H   UNL     1       0.000   0.000   0.000  1.00  0.00     0.296 HD
ENDBRANCH  33  35
ENDBRANCH  32  33
ENDBRANCH   6  32
BRANCH   5  37
ATOM     37  C   UNL     1       1.775   3.764   0.000  1.00  0.00     0.337 C 
ATOM     38  O   UNL     1       2.759   3.799   0.000  1.00  0.00    -0.246 OA
BRANCH  37  39
ATOM     39  O   UNL     1       1.141   5.124   0.000  1.00  0.00    -0.466 OA
ATOM     40  C   UNL     1       2.002   6.353   0.000  1.00  0.00     0.282 C 
ENDBRANCH  37  39
ENDBRANCH   5  37
TORSDOF 17
