REMARK SMILES COc1cc(C[C@H]2CO[C@H](c3ccc(OC)c(OC)c3)[C@H]2CO)ccc1O
REMARK SMILES IDX 7 1 8 2 9 3 10 4 21 5 6 6 5 7 3 8 4 9 26 10 25 11 24 12 2 13
REMARK SMILES IDX 1 14 27 15 22 17 23 18 11 20 12 21 20 22 13 23 17 24 14 25
REMARK SMILES IDX 18 26 19 27 15 28 16 29
REMARK H PARENT 27 16 23 19
ROOT
ATOM      1  C   UNL     1      -1.083   2.120   0.000  1.00  0.00     0.028 C 
ATOM      2  C   UNL     1      -0.203   3.335   0.000  1.00  0.00     0.165 C 
ATOM      3  O   UNL     1       1.224   2.874   0.000  1.00  0.00    -0.373 OA
ATOM      4  C   UNL     1       1.226   1.374   0.000  1.00  0.00     0.154 C 
ATOM      5  C   UNL     1      -0.200   0.908   0.000  1.00  0.00     0.054 C 
ENDROOT
BRANCH   1   6
ATOM      6  C   UNL     1      -2.583   2.118   0.000  1.00  0.00     0.042 C 
BRANCH   6   7
ATOM      7  C   UNL     1      -3.331   0.818   0.000  1.00  0.00    -0.044 A 
ATOM      8  C   UNL     1      -5.579  -0.485   0.000  1.00  0.00     0.160 A 
ATOM      9  C   UNL     1      -4.831   0.815   0.000  1.00  0.00     0.054 A 
ATOM     10  C   UNL     1      -4.827  -1.783   0.000  1.00  0.00     0.157 A 
ATOM     11  C   UNL     1      -3.327  -1.780   0.000  1.00  0.00     0.050 A 
ATOM     12  C   UNL     1      -2.579  -0.480   0.000  1.00  0.00     0.008 A 
BRANCH   8  13
ATOM     13  O   UNL     1      -7.079  -0.487   0.000  1.00  0.00    -0.493 OA
ATOM     14  C   UNL     1      -7.831   0.811   0.000  1.00  0.00     0.278 C 
ENDBRANCH   8  13
BRANCH  10  15
ATOM     15  O   UNL     1      -5.575  -3.083   0.000  1.00  0.00    -0.504 OA
ATOM     16  H   UNL     1       0.000   0.000   0.000  1.00  0.00     0.293 HD
ENDBRANCH  10  15
ENDBRANCH   6   7
ENDBRANCH   1   6
BRANCH   5  17
ATOM     17  C   UNL     1      -0.661  -0.519   0.000  1.00  0.00     0.163 C 
BRANCH  17  18
ATOM     18  O   UNL     1       0.344  -1.632   0.000  1.00  0.00    -0.396 OA
ATOM     19  H   UNL     1       0.000   0.000   0.000  1.00  0.00     0.210 HD
ENDBRANCH  17  18
ENDBRANCH   5  17
BRANCH   4  20
ATOM     20  C   UNL     1       2.441   0.494   0.000  1.00  0.00    -0.015 A 
ATOM     21  C   UNL     1       2.287  -0.998   0.000  1.00  0.00     0.010 A 
ATOM     22  C   UNL     1       3.810   1.107   0.000  1.00  0.00     0.056 A 
ATOM     23  C   UNL     1       3.502  -1.877   0.000  1.00  0.00     0.051 A 
ATOM     24  C   UNL     1       5.025   0.227   0.000  1.00  0.00     0.161 A 
ATOM     25  C   UNL     1       4.871  -1.265   0.000  1.00  0.00     0.160 A 
BRANCH  24  26
ATOM     26  O   UNL     1       6.395   0.839   0.000  1.00  0.00    -0.493 OA
ATOM     27  C   UNL     1       6.549   2.331   0.000  1.00  0.00     0.278 C 
ENDBRANCH  24  26
BRANCH  25  28
ATOM     28  O   UNL     1       6.086  -2.145   0.000  1.00  0.00    -0.493 OA
ATOM     29  C   UNL     1       5.931  -3.637   0.000  1.00  0.00     0.278 C 
ENDBRANCH  25  28
ENDBRANCH   4  20
TORSDOF 9
