REMARK SMILES COc1ccc([C@H]2OC[C@H]3[C@@H]2CO[C@@H]3c2ccc(OC(C)=O)c(OC)c2)cc1OC
REMARK SMILES IDX 7 1 8 2 9 3 10 4 11 5 12 6 13 7 14 8 6 9 3 10 4 11 28 12
REMARK SMILES IDX 5 13 27 14 2 15 1 16 29 17 30 18 15 19 16 20 26 21 17 22
REMARK SMILES IDX 23 23 18 24 24 25 25 26 19 27 20 28 21 29 22 30
REMARK H PARENT
ROOT
ATOM      1  C   UNL     1       2.323  -0.851   0.000  1.00  0.00     0.154 C 
ATOM      2  O   UNL     1       1.626  -2.179   0.000  1.00  0.00    -0.373 OA
ATOM      3  C   UNL     1       0.147  -1.926   0.000  1.00  0.00     0.168 C 
ATOM      4  C   UNL     1      -0.069  -0.442   0.000  1.00  0.00     0.057 C 
ATOM      5  C   UNL     1       1.276   0.223   0.000  1.00  0.00     0.057 C 
ATOM      6  C   UNL     1       1.060   1.707   0.000  1.00  0.00     0.168 C 
ATOM      7  O   UNL     1      -0.419   1.960   0.000  1.00  0.00    -0.373 OA
ATOM      8  C   UNL     1      -1.117   0.632   0.000  1.00  0.00     0.154 C 
ENDROOT
BRANCH   1   9
ATOM      9  C   UNL     1       3.808  -0.634   0.000  1.00  0.00    -0.015 A 
ATOM     10  C   UNL     1       6.776  -0.202   0.000  1.00  0.00     0.160 A 
ATOM     11  C   UNL     1       6.221  -1.595   0.000  1.00  0.00     0.051 A 
ATOM     12  C   UNL     1       5.847   0.975   0.000  1.00  0.00     0.161 A 
ATOM     13  C   UNL     1       4.737  -1.812   0.000  1.00  0.00     0.010 A 
ATOM     14  C   UNL     1       4.362   0.759   0.000  1.00  0.00     0.056 A 
BRANCH  10  15
ATOM     15  O   UNL     1       8.261   0.015   0.000  1.00  0.00    -0.493 OA
ATOM     16  C   UNL     1       9.190  -1.163   0.000  1.00  0.00     0.278 C 
ENDBRANCH  10  15
BRANCH  12  17
ATOM     17  O   UNL     1       6.402   2.369   0.000  1.00  0.00    -0.493 OA
ATOM     18  C   UNL     1       5.472   3.546   0.000  1.00  0.00     0.278 C 
ENDBRANCH  12  17
ENDBRANCH   1   9
BRANCH   8  19
ATOM     19  C   UNL     1      -2.601   0.416   0.000  1.00  0.00    -0.015 A 
ATOM     20  C   UNL     1      -3.530   1.593   0.000  1.00  0.00     0.010 A 
ATOM     21  C   UNL     1      -3.156  -0.978   0.000  1.00  0.00     0.056 A 
ATOM     22  C   UNL     1      -5.015   1.377   0.000  1.00  0.00     0.051 A 
ATOM     23  C   UNL     1      -4.640  -1.194   0.000  1.00  0.00     0.161 A 
ATOM     24  C   UNL     1      -5.569  -0.017   0.000  1.00  0.00     0.172 A 
BRANCH  23  25
ATOM     25  O   UNL     1      -5.195  -2.588   0.000  1.00  0.00    -0.493 OA
ATOM     26  C   UNL     1      -4.265  -3.765   0.000  1.00  0.00     0.278 C 
ENDBRANCH  23  25
BRANCH  24  27
ATOM     27  O   UNL     1      -7.054  -0.233   0.000  1.00  0.00    -0.423 OA
BRANCH  27  28
ATOM     28  C   UNL     1      -7.983   0.944   0.000  1.00  0.00     0.308 C 
ATOM     29  C   UNL     1      -9.468   0.728   0.000  1.00  0.00     0.139 C 
ATOM     30  O   UNL     1      -7.428   2.337   0.000  1.00  0.00    -0.252 OA
ENDBRANCH  27  28
ENDBRANCH  24  27
ENDBRANCH   8  19
TORSDOF 7
