REMARK SMILES C=C(C)[C@H]1Cc2c(ccc3c2O[C@@H]2COc4cc(OC)c(OC)cc4[C@]2(O)C3=O)O1
REMARK SMILES IDX 4 1 5 2 6 3 7 4 8 5 9 6 10 7 11 8 12 9 13 10 14 11 15 12
REMARK SMILES IDX 16 13 17 14 18 15 21 16 24 17 25 18 26 19 28 20 29 21 30 22
REMARK SMILES IDX 2 23 1 24 3 25 27 26 22 28 23 29 19 30 20 31
REMARK H PARENT 27 27
ROOT
ATOM      1  C   UNL     1      -5.980  -0.270   0.000  1.00  0.00     0.203 C 
ATOM      2  C   UNL     1      -4.649  -0.963   0.000  1.00  0.00     0.093 C 
ATOM      3  C   UNL     1      -3.579   0.088   0.000  1.00  0.00     0.041 A 
ATOM      4  C   UNL     1      -4.248   1.431   0.000  1.00  0.00     0.127 A 
ATOM      5  C   UNL     1      -3.420   2.681   0.000  1.00  0.00     0.048 A 
ATOM      6  C   UNL     1      -1.923   2.589   0.000  1.00  0.00     0.019 A 
ATOM      7  C   UNL     1      -1.254   1.247   0.000  1.00  0.00     0.064 A 
ATOM      8  C   UNL     1      -2.082  -0.004   0.000  1.00  0.00     0.138 A 
ATOM      9  O   UNL     1      -1.413  -1.346   0.000  1.00  0.00    -0.482 OA
ATOM     10  C   UNL     1       0.084  -1.438   0.000  1.00  0.00     0.255 C 
ATOM     11  C   UNL     1       0.753  -2.781   0.000  1.00  0.00     0.278 C 
ATOM     12  O   UNL     1       2.250  -2.873   0.000  1.00  0.00    -0.489 OA
ATOM     13  C   UNL     1       3.078  -1.623   0.000  1.00  0.00     0.130 A 
ATOM     14  C   UNL     1       4.575  -1.715   0.000  1.00  0.00     0.097 A 
ATOM     15  C   UNL     1       5.404  -0.464   0.000  1.00  0.00     0.164 A 
ATOM     16  C   UNL     1       4.735   0.879   0.000  1.00  0.00     0.161 A 
ATOM     17  C   UNL     1       3.238   0.971   0.000  1.00  0.00     0.061 A 
ATOM     18  C   UNL     1       2.409  -0.280   0.000  1.00  0.00     0.041 A 
ATOM     19  C   UNL     1       0.912  -0.188   0.000  1.00  0.00     0.197 C 
ATOM     20  C   UNL     1       0.243   1.155   0.000  1.00  0.00     0.206 C 
ATOM     21  O   UNL     1       1.072   2.405   0.000  1.00  0.00    -0.290 OA
ATOM     22  O   UNL     1      -5.732   1.210   0.000  1.00  0.00    -0.485 OA
ENDROOT
BRANCH   1  23
ATOM     23  C   UNL     1      -7.322  -0.939   0.000  1.00  0.00    -0.040 C 
ATOM     24  C   UNL     1      -7.414  -2.436   0.000  1.00  0.00     0.011 C 
ATOM     25  C   UNL     1      -8.573  -0.110   0.000  1.00  0.00     0.043 C 
ENDBRANCH   1  23
BRANCH  19  26
ATOM     26  O   UNL     1       1.741   1.063   0.000  1.00  0.00    -0.373 OA
ATOM     27  H   UNL     1       0.000   0.000   0.000  1.00  0.00     0.212 HD
ENDBRANCH  19  26
BRANCH  16  28
ATOM     28  O   UNL     1       5.563   2.129   0.000  1.00  0.00    -0.493 OA
ATOM     29  C   UNL     1       7.060   2.037   0.000  1.00  0.00     0.278 C 
ENDBRANCH  16  28
BRANCH  15  30
ATOM     30  O   UNL     1       6.901  -0.556   0.000  1.00  0.00    -0.493 OA
ATOM     31  C   UNL     1       7.570  -1.899   0.000  1.00  0.00     0.278 C 
ENDBRANCH  15  30
TORSDOF 4
