REMARK SMILES CC(=O)OC[C@]12[C@H](OC(C)=O)[C@@H](OC(=O)c3cccnc3)[C@@H]3[C@@H](OC(C)=O)[C@@]14O[C@@]3(C)COC(=O)c1cccnc1C(C)C(C)C(=O)O[C@@H]([C@H](OC(C)=O)[C@@H]2OC(C)=O)[C@]4(C)O
REMARK SMILES IDX 32 1 30 2 6 3 7 4 28 5 55 6 12 7 23 8 29 9 60 10 50 11 22 12
REMARK SMILES IDX 49 13 61 14 31 15 5 16 4 17 2 18 1 19 3 20 8 21 9 22 10 23
REMARK SMILES IDX 11 24 56 25 57 26 58 27 59 28 13 29 14 30 15 31 16 32 17 33
REMARK SMILES IDX 21 34 18 35 20 36 19 37 24 38 25 39 26 40 27 41 62 42 51 44
REMARK SMILES IDX 52 45 53 46 54 47 48 48 46 49 47 50 44 51 45 52 33 54 34 55
REMARK SMILES IDX 35 56 36 57 37 58 41 59 38 60 40 61 39 62 42 63 43 64
REMARK H PARENT 62 43
REMARK Flexibility Score:   90.900
ROOT
ATOM      1  C   UNL     1       1.085  -3.546   0.000  1.00  0.00     0.269 C 
ENDROOT
BRANCH   1   2
ATOM      2  C   UNL     1       0.187  -2.344   0.000  1.00  0.00     0.111 C 
ATOM      3  C   UNL     1      -1.125   1.163   0.000  1.00  0.00     0.121 C 
ATOM      4  C   UNL     1      -2.448   0.456   0.000  1.00  0.00     0.234 C 
ATOM      5  C   UNL     1       0.279   0.579   0.000  1.00  0.00     0.155 C 
ATOM      6  C   UNL     1      -0.795   2.626   0.000  1.00  0.00     0.238 C 
ATOM      7  C   UNL     1      -2.498  -1.043   0.000  1.00  0.00     0.228 C 
ATOM      8  C   UNL     1      -1.177  -0.337   0.000  1.00  0.00     0.222 C 
ATOM      9  O   UNL     1      -0.100  -0.872   0.000  1.00  0.00    -0.357 OA
ATOM     10  C   UNL     1       1.251   1.722   0.000  1.00  0.00     0.136 C 
ATOM     11  C   UNL     1       0.637   3.072   0.000  1.00  0.00     0.262 C 
ATOM     12  C   UNL     1      -1.224  -1.836   0.000  1.00  0.00     0.113 C 
ATOM     13  C   UNL     1       2.622   2.330   0.000  1.00  0.00     0.255 C 
ATOM     14  C   UNL     1      -0.168   2.209   0.000  1.00  0.00     0.050 C 
ATOM     15  C   UNL     1      -1.184  -2.952   0.000  1.00  0.00     0.047 C 
BRANCH   3  16
ATOM     16  C   UNL     1      -1.075   2.662   0.000  1.00  0.00     0.251 C 
BRANCH  16  17
ATOM     17  O   UNL     1      -2.348   3.454   0.000  1.00  0.00    -0.465 OA
BRANCH  17  18
ATOM     18  C   UNL     1      -2.299   4.954   0.000  1.00  0.00     0.302 C 
ATOM     19  C   UNL     1      -3.572   5.746   0.000  1.00  0.00     0.139 C 
ATOM     20  O   UNL     1      -1.071   5.816   0.000  1.00  0.00    -0.253 OA
ENDBRANCH  17  18
ENDBRANCH  16  17
ENDBRANCH   3  16
BRANCH   4  21
ATOM     21  O   UNL     1      -3.721   1.249   0.000  1.00  0.00    -0.458 OA
BRANCH  21  22
ATOM     22  C   UNL     1      -5.045   0.542   0.000  1.00  0.00     0.303 C 
ATOM     23  C   UNL     1      -6.318   1.335   0.000  1.00  0.00     0.139 C 
ATOM     24  O   UNL     1      -5.094  -0.957   0.000  1.00  0.00    -0.253 OA
ENDBRANCH  21  22
ENDBRANCH   4  21
BRANCH   6  25
ATOM     25  O   UNL     1      -1.898   3.643   0.000  1.00  0.00    -0.457 OA
BRANCH  25  26
ATOM     26  C   UNL     1      -1.568   5.106   0.000  1.00  0.00     0.303 C 
ATOM     27  C   UNL     1      -2.671   6.123   0.000  1.00  0.00     0.139 C 
ATOM     28  O   UNL     1      -0.092   5.375   0.000  1.00  0.00    -0.253 OA
ENDBRANCH  25  26
ENDBRANCH   6  25
BRANCH   7  29
ATOM     29  O   UNL     1      -3.821  -1.750   0.000  1.00  0.00    -0.454 OA
BRANCH  29  30
ATOM     30  C   UNL     1      -3.870  -3.249   0.000  1.00  0.00     0.340 C 
ATOM     31  O   UNL     1      -2.597  -4.042   0.000  1.00  0.00    -0.246 OA
BRANCH  30  32
ATOM     32  C   UNL     1      -5.194  -3.955   0.000  1.00  0.00     0.078 A 
ATOM     33  C   UNL     1      -5.243  -5.455   0.000  1.00  0.00     0.019 A 
ATOM     34  C   UNL     1      -6.467  -3.163   0.000  1.00  0.00     0.126 A 
ATOM     35  C   UNL     1      -6.566  -6.161   0.000  1.00  0.00     0.021 A 
ATOM     36  N   UNL     1      -7.790  -3.869   0.000  1.00  0.00    -0.264 NA
ATOM     37  C   UNL     1      -7.840  -5.369   0.000  1.00  0.00     0.111 A 
ENDBRANCH  30  32
ENDBRANCH  29  30
ENDBRANCH   7  29
BRANCH   8  38
ATOM     38  O   UNL     1      -2.362   0.583   0.000  1.00  0.00    -0.459 OA
BRANCH  38  39
ATOM     39  C   UNL     1      -3.751   0.016   0.000  1.00  0.00     0.303 C 
ATOM     40  C   UNL     1      -5.123   0.621   0.000  1.00  0.00     0.139 C 
ATOM     41  O   UNL     1      -4.308  -1.377   0.000  1.00  0.00    -0.253 OA
ENDBRANCH  38  39
ENDBRANCH   8  38
BRANCH  10  42
ATOM     42  O   UNL     1       0.825   3.160   0.000  1.00  0.00    -0.383 OA
ATOM     43  H   UNL     1       0.000   0.000   0.000  1.00  0.00     0.211 HD
ENDBRANCH  10  42
BRANCH  11  44
ATOM     44  O   UNL     1       0.967   4.535   0.000  1.00  0.00    -0.454 OA
BRANCH  44  45
ATOM     45  C   UNL     1       2.399   4.982   0.000  1.00  0.00     0.303 C 
ATOM     46  C   UNL     1       2.728   6.445   0.000  1.00  0.00     0.139 C 
ATOM     47  O   UNL     1       3.501   3.965   0.000  1.00  0.00    -0.253 OA
ENDBRANCH  44  45
ENDBRANCH  11  44
BRANCH  13  48
ATOM     48  O   UNL     1       4.121   2.283   0.000  1.00  0.00    -0.455 OA
BRANCH  48  49
ATOM     49  C   UNL     1       5.452   1.590   0.000  1.00  0.00     0.309 C 
ATOM     50  O   UNL     1       6.423   2.733   0.000  1.00  0.00    -0.252 OA
BRANCH  49  51
ATOM     51  C   UNL     1       6.350   0.388   0.000  1.00  0.00     0.105 CG0
ATOM     52  C   UNL     1       7.721   0.996   0.000  1.00  0.00     0.020 C 
ATOM     53  G   UNL     1       6.637  -1.084   0.000  1.00  0.00     0.000 G0
ENDBRANCH  49  51
ENDBRANCH  48  49
ENDBRANCH  13  48
ENDBRANCH   1   2
BRANCH   1  54
ATOM     54  O   UNL     1       2.416  -4.239   0.000  1.00  0.00    -0.459 OA
BRANCH  54  55
ATOM     55  C   UNL     1       3.915  -4.286   0.000  1.00  0.00     0.340 C 
ATOM     56  O   UNL     1       4.202  -5.758   0.000  1.00  0.00    -0.246 OA
BRANCH  55  57
ATOM     57  C   UNL     1       5.286  -3.678   0.000  1.00  0.00     0.081 A 
ATOM     58  C   UNL     1       5.790  -5.091   0.000  1.00  0.00     0.019 A 
ATOM     59  C   UNL     1       6.258  -2.535   0.000  1.00  0.00     0.058 A 
ATOM     60  C   UNL     1       7.265  -5.361   0.000  1.00  0.00     0.021 A 
ATOM     61  N   UNL     1       7.733  -2.805   0.000  1.00  0.00    -0.260 NA
ATOM     62  C   UNL     1       8.237  -4.218   0.000  1.00  0.00     0.111 A 
BRANCH  59  63
ATOM     63  C   UNL     1       6.637  -1.084   0.000  1.00  0.00     0.050 CG0
ATOM     64  C   UNL     1       8.136  -1.131   0.000  1.00  0.00     0.015 C 
ATOM     65  G   UNL     1       6.350   0.388   0.000  1.00  0.00     0.000 G0
ENDBRANCH  59  63
ENDBRANCH  55  57
ENDBRANCH  54  55
ENDBRANCH   1  54
TORSDOF 15
