REMARK SMILES COc1cc(-c2oc3cc(O)cc(O)c3c(=O)c2O[C@@H]2O[C@H](C)[C@@H](O)[C@H](O)[C@@H]2O)ccc1O
REMARK SMILES IDX 6 1 18 2 16 3 17 4 15 5 13 6 12 7 10 8 9 9 8 10 7 11 5 12
REMARK SMILES IDX 3 13 4 14 32 15 31 16 30 17 2 18 1 19 33 20 19 22 20 23
REMARK SMILES IDX 21 24 28 25 22 26 26 27 24 28 23 29 29 30 27 32 25 34 14 36
REMARK SMILES IDX 11 38
REMARK H PARENT 33 21 29 31 27 33 25 35 14 37 11 39
ROOT
ATOM      1  C   UNL     1      -1.546   0.290   0.000  1.00  0.00     0.180 A 
ATOM      2  C   UNL     1      -0.055   0.125   0.000  1.00  0.00     0.214 A 
ATOM      3  C   UNL     1       0.833   1.334   0.000  1.00  0.00     0.239 A 
ATOM      4  O   UNL     1       2.324   1.169   0.000  1.00  0.00    -0.285 OA
ATOM      5  C   UNL     1       0.231   2.707   0.000  1.00  0.00     0.111 A 
ATOM      6  C   UNL     1       1.119   3.916   0.000  1.00  0.00     0.134 A 
ATOM      7  C   UNL     1       0.516   5.290   0.000  1.00  0.00     0.093 A 
ATOM      8  C   UNL     1      -0.975   5.454   0.000  1.00  0.00     0.123 A 
ATOM      9  C   UNL     1      -1.863   4.245   0.000  1.00  0.00     0.094 A 
ATOM     10  C   UNL     1      -1.260   2.872   0.000  1.00  0.00     0.146 A 
ATOM     11  O   UNL     1      -2.148   1.663   0.000  1.00  0.00    -0.452 OA
ENDROOT
BRANCH   1  12
ATOM     12  C   UNL     1      -2.434  -0.919   0.000  1.00  0.00     0.025 A 
ATOM     13  C   UNL     1      -4.813  -1.963   0.000  1.00  0.00     0.161 A 
ATOM     14  C   UNL     1      -3.925  -0.754   0.000  1.00  0.00     0.062 A 
ATOM     15  C   UNL     1      -4.210  -3.337   0.000  1.00  0.00     0.157 A 
ATOM     16  C   UNL     1      -2.719  -3.502   0.000  1.00  0.00     0.051 A 
ATOM     17  C   UNL     1      -1.831  -2.293   0.000  1.00  0.00     0.016 A 
BRANCH  13  18
ATOM     18  O   UNL     1      -6.304  -1.798   0.000  1.00  0.00    -0.493 OA
ATOM     19  C   UNL     1      -6.907  -0.425   0.000  1.00  0.00     0.278 C 
ENDBRANCH  13  18
BRANCH  15  20
ATOM     20  O   UNL     1      -5.098  -4.546   0.000  1.00  0.00    -0.504 OA
ATOM     21  H   UNL     1       0.000   0.000   0.000  1.00  0.00     0.293 HD
ENDBRANCH  15  20
ENDBRANCH   1  12
BRANCH   2  22
ATOM     22  O   UNL     1       0.548  -1.249   0.000  1.00  0.00    -0.454 OA
BRANCH  22  23
ATOM     23  C   UNL     1       2.039  -1.413   0.000  1.00  0.00     0.339 C 
ATOM     24  O   UNL     1       2.927  -0.205   0.000  1.00  0.00    -0.335 OA
ATOM     25  C   UNL     1       2.642  -2.787   0.000  1.00  0.00     0.214 C 
ATOM     26  C   UNL     1       4.418  -0.369   0.000  1.00  0.00     0.151 C 
ATOM     27  C   UNL     1       4.133  -2.952   0.000  1.00  0.00     0.180 C 
ATOM     28  C   UNL     1       5.021  -1.743   0.000  1.00  0.00     0.174 C 
ATOM     29  C   UNL     1       5.306   0.840   0.000  1.00  0.00     0.042 C 
BRANCH  25  30
ATOM     30  O   UNL     1       1.754  -3.996   0.000  1.00  0.00    -0.384 OA
ATOM     31  H   UNL     1       0.000   0.000   0.000  1.00  0.00     0.211 HD
ENDBRANCH  25  30
BRANCH  27  32
ATOM     32  O   UNL     1       4.735  -4.325   0.000  1.00  0.00    -0.387 OA
ATOM     33  H   UNL     1       0.000   0.000   0.000  1.00  0.00     0.211 HD
ENDBRANCH  27  32
BRANCH  28  34
ATOM     34  O   UNL     1       6.512  -1.908   0.000  1.00  0.00    -0.388 OA
ATOM     35  H   UNL     1       0.000   0.000   0.000  1.00  0.00     0.211 HD
ENDBRANCH  28  34
ENDBRANCH  22  23
ENDBRANCH   2  22
BRANCH   6  36
ATOM     36  O   UNL     1       2.610   3.751   0.000  1.00  0.00    -0.507 OA
ATOM     37  H   UNL     1       0.000   0.000   0.000  1.00  0.00     0.293 HD
ENDBRANCH   6  36
BRANCH   8  38
ATOM     38  O   UNL     1      -1.578   6.828   0.000  1.00  0.00    -0.508 OA
ATOM     39  H   UNL     1       0.000   0.000   0.000  1.00  0.00     0.293 HD
ENDBRANCH   8  38
TORSDOF 10
