REMARK SMILES COc1cc2c(cc1OC)[C@]13C[C@@H](OC)C=CC1=CCN3C[C@@H]2OC
REMARK SMILES IDX 3 1 4 2 5 3 6 4 7 5 8 6 11 7 12 8 13 9 16 10 17 11 18 12
REMARK SMILES IDX 19 13 20 14 21 15 22 16 23 17 2 18 1 19 9 20 10 21 24 22
REMARK SMILES IDX 25 23 14 24 15 25
REMARK H PARENT
ROOT
ATOM      1  C   UNL     1       2.256  -1.051   0.000  1.00  0.00     0.161 A 
ATOM      2  C   UNL     1       1.043  -1.933   0.000  1.00  0.00     0.057 A 
ATOM      3  C   UNL     1      -0.328  -1.324   0.000  1.00  0.00    -0.009 A 
ATOM      4  C   UNL     1      -0.486   0.168   0.000  1.00  0.00    -0.013 A 
ATOM      5  C   UNL     1       0.727   1.050   0.000  1.00  0.00     0.056 A 
ATOM      6  C   UNL     1       2.098   0.441   0.000  1.00  0.00     0.161 A 
ATOM      7  C   UNL     1      -1.856   0.777   0.000  1.00  0.00     0.075 C 
ATOM      8  C   UNL     1      -0.606   1.132   0.000  1.00  0.00     0.069 C 
ATOM      9  C   UNL     1      -0.071   1.726   0.000  1.00  0.00     0.143 C 
ATOM     10  C   UNL     1      -0.318   2.487   0.000  1.00  0.00     0.005 C 
ATOM     11  C   UNL     1      -1.101   2.653   0.000  1.00  0.00     0.004 C 
ATOM     12  C   UNL     1      -2.321   2.203   0.000  1.00  0.00    -0.026 C 
ATOM     13  C   UNL     1      -3.821   2.203   0.000  1.00  0.00    -0.006 C 
ATOM     14  C   UNL     1      -4.283   0.776   0.000  1.00  0.00     0.113 C 
ATOM     15  N   UNL     1      -3.069  -0.105   0.000  1.00  0.00    -0.283 NA
ATOM     16  C   UNL     1      -2.912  -1.597   0.000  1.00  0.00     0.123 C 
ATOM     17  C   UNL     1      -1.541  -2.206   0.000  1.00  0.00     0.162 C 
ENDROOT
BRANCH   1  18
ATOM     18  O   UNL     1       3.626  -1.660   0.000  1.00  0.00    -0.493 OA
ATOM     19  C   UNL     1       3.784  -3.152   0.000  1.00  0.00     0.278 C 
ENDBRANCH   1  18
BRANCH   6  20
ATOM     20  O   UNL     1       3.311   1.323   0.000  1.00  0.00    -0.493 OA
ATOM     21  C   UNL     1       4.682   0.714   0.000  1.00  0.00     0.278 C 
ENDBRANCH   6  20
BRANCH  17  22
ATOM     22  O   UNL     1      -1.384  -3.698   0.000  1.00  0.00    -0.375 OA
ATOM     23  C   UNL     1      -2.597  -4.580   0.000  1.00  0.00     0.195 C 
ENDBRANCH  17  22
BRANCH   9  24
ATOM     24  O   UNL     1       2.082   1.270   0.000  1.00  0.00    -0.377 OA
ATOM     25  C   UNL     1       3.085   2.385   0.000  1.00  0.00     0.195 C 
ENDBRANCH   9  24
TORSDOF 4
