REMARK SMILES C=C(C)[C@H]1Cc2c(cc(O)c3c2O[C@@H]2COc4cc(OC)c(OC)cc4[C@@H]2C3=O)O1
REMARK SMILES IDX 4 1 5 2 6 3 7 4 8 5 9 6 11 7 12 8 13 9 14 10 15 11 16 12
REMARK SMILES IDX 17 13 18 14 19 15 22 16 25 17 26 18 27 19 28 20 29 21 30 22
REMARK SMILES IDX 2 23 1 24 3 25 10 26 23 28 24 29 20 30 21 31
REMARK H PARENT 10 27
ROOT
ATOM      1  C   UNL     1      -5.881  -0.427   0.000  1.00  0.00     0.203 C 
ATOM      2  C   UNL     1      -4.543  -1.105   0.000  1.00  0.00     0.093 C 
ATOM      3  C   UNL     1      -3.485  -0.042   0.000  1.00  0.00     0.041 A 
ATOM      4  C   UNL     1      -4.168   1.293   0.000  1.00  0.00     0.131 A 
ATOM      5  C   UNL     1      -3.353   2.552   0.000  1.00  0.00     0.094 A 
ATOM      6  C   UNL     1      -1.855   2.477   0.000  1.00  0.00     0.133 A 
ATOM      7  C   UNL     1      -1.172   1.141   0.000  1.00  0.00     0.103 A 
ATOM      8  C   UNL     1      -1.986  -0.118   0.000  1.00  0.00     0.141 A 
ATOM      9  O   UNL     1      -1.303  -1.453   0.000  1.00  0.00    -0.484 OA
ATOM     10  C   UNL     1       0.195  -1.529   0.000  1.00  0.00     0.226 C 
ATOM     11  C   UNL     1       0.879  -2.864   0.000  1.00  0.00     0.275 C 
ATOM     12  O   UNL     1       2.377  -2.940   0.000  1.00  0.00    -0.489 OA
ATOM     13  C   UNL     1       3.191  -1.680   0.000  1.00  0.00     0.127 A 
ATOM     14  C   UNL     1       4.689  -1.756   0.000  1.00  0.00     0.097 A 
ATOM     15  C   UNL     1       5.504  -0.497   0.000  1.00  0.00     0.164 A 
ATOM     16  C   UNL     1       4.821   0.839   0.000  1.00  0.00     0.161 A 
ATOM     17  C   UNL     1       3.322   0.914   0.000  1.00  0.00     0.059 A 
ATOM     18  C   UNL     1       2.508  -0.345   0.000  1.00  0.00     0.013 A 
ATOM     19  C   UNL     1       1.010  -0.270   0.000  1.00  0.00     0.140 C 
ATOM     20  C   UNL     1       0.326   1.066   0.000  1.00  0.00     0.181 C 
ATOM     21  O   UNL     1       1.141   2.325   0.000  1.00  0.00    -0.293 OA
ATOM     22  O   UNL     1      -5.649   1.055   0.000  1.00  0.00    -0.485 OA
ENDROOT
BRANCH   1  23
ATOM     23  C   UNL     1      -7.216  -1.110   0.000  1.00  0.00    -0.040 C 
ATOM     24  C   UNL     1      -7.292  -2.608   0.000  1.00  0.00     0.011 C 
ATOM     25  C   UNL     1      -8.476  -0.295   0.000  1.00  0.00     0.043 C 
ENDBRANCH   1  23
BRANCH   6  26
ATOM     26  O   UNL     1      -1.041   3.736   0.000  1.00  0.00    -0.507 OA
ATOM     27  H   UNL     1       0.000   0.000   0.000  1.00  0.00     0.293 HD
ENDBRANCH   6  26
BRANCH  16  28
ATOM     28  O   UNL     1       5.635   2.098   0.000  1.00  0.00    -0.493 OA
ATOM     29  C   UNL     1       7.133   2.022   0.000  1.00  0.00     0.278 C 
ENDBRANCH  16  28
BRANCH  15  30
ATOM     30  O   UNL     1       7.002  -0.572   0.000  1.00  0.00    -0.493 OA
ATOM     31  C   UNL     1       7.686  -1.907   0.000  1.00  0.00     0.278 C 
ENDBRANCH  15  30
TORSDOF 4
