REMARK SMILES COc1cc2c(cc1O)[C@@H]1Oc3c(cc(O)c(OC)c3OC)[C@@H]1CO2
REMARK SMILES IDX 3 1 4 2 5 3 6 4 7 5 8 6 10 7 11 8 12 9 13 10 14 11 15 12
REMARK SMILES IDX 17 13 20 14 23 15 24 16 25 17 2 18 1 19 9 20 21 22 22 23
REMARK SMILES IDX 18 24 19 25 16 26
REMARK H PARENT 9 21 16 27
ROOT
ATOM      1  C   UNL     1      -4.970  -0.278   0.000  1.00  0.00     0.164 A 
ATOM      2  C   UNL     1      -4.302   1.065   0.000  1.00  0.00     0.097 A 
ATOM      3  C   UNL     1      -2.805   1.159   0.000  1.00  0.00     0.130 A 
ATOM      4  C   UNL     1      -1.976  -0.091   0.000  1.00  0.00     0.039 A 
ATOM      5  C   UNL     1      -2.644  -1.435   0.000  1.00  0.00     0.061 A 
ATOM      6  C   UNL     1      -4.141  -1.528   0.000  1.00  0.00     0.158 A 
ATOM      7  C   UNL     1      -0.479   0.002   0.000  1.00  0.00     0.218 C 
ATOM      8  O   UNL     1       0.592  -1.048   0.000  1.00  0.00    -0.480 OA
ATOM      9  C   UNL     1       1.922  -0.354   0.000  1.00  0.00     0.170 A 
ATOM     10  C   UNL     1       1.673   1.125   0.000  1.00  0.00     0.013 A 
ATOM     11  C   UNL     1       2.829   2.080   0.000  1.00  0.00     0.058 A 
ATOM     12  C   UNL     1       4.235   1.556   0.000  1.00  0.00     0.162 A 
ATOM     13  C   UNL     1       4.484   0.077   0.000  1.00  0.00     0.207 A 
ATOM     14  C   UNL     1       3.328  -0.878   0.000  1.00  0.00     0.207 A 
ATOM     15  C   UNL     1       0.189   1.345   0.000  1.00  0.00     0.107 C 
ATOM     16  C   UNL     1      -0.640   2.595   0.000  1.00  0.00     0.242 C 
ATOM     17  O   UNL     1      -2.137   2.502   0.000  1.00  0.00    -0.492 OA
ENDROOT
BRANCH   1  18
ATOM     18  O   UNL     1      -6.467  -0.371   0.000  1.00  0.00    -0.493 OA
ATOM     19  C   UNL     1      -7.296   0.879   0.000  1.00  0.00     0.278 C 
ENDBRANCH   1  18
BRANCH   6  20
ATOM     20  O   UNL     1      -4.809  -2.871   0.000  1.00  0.00    -0.504 OA
ATOM     21  H   UNL     1       0.000   0.000   0.000  1.00  0.00     0.293 HD
ENDBRANCH   6  20
BRANCH  14  22
ATOM     22  O   UNL     1       3.577  -2.357   0.000  1.00  0.00    -0.490 OA
ATOM     23  C   UNL     1       2.420  -3.313   0.000  1.00  0.00     0.278 C 
ENDBRANCH  14  22
BRANCH  13  24
ATOM     24  O   UNL     1       5.889  -0.447   0.000  1.00  0.00    -0.490 OA
ATOM     25  C   UNL     1       6.139  -1.926   0.000  1.00  0.00     0.278 C 
ENDBRANCH  13  24
BRANCH  12  26
ATOM     26  O   UNL     1       5.391   2.512   0.000  1.00  0.00    -0.504 OA
ATOM     27  H   UNL     1       0.000   0.000   0.000  1.00  0.00     0.293 HD
ENDBRANCH  12  26
TORSDOF 5
