REMARK SMILES COC(=O)C[C@H]1[C@]2(C)C3=C(C)[C@H](c4ccoc4)C[C@H]3O[C@@H]2[C@@H]2OC[C@]3(C)C=CC(=O)[C@@]1(C)[C@@H]23
REMARK SMILES IDX 3 1 4 2 2 3 1 4 5 5 6 6 7 7 31 8 9 9 21 10 29 11 33 12 10 13
REMARK SMILES IDX 19 14 20 15 22 16 28 17 25 18 12 19 18 20 23 21 27 22 24 23
REMARK SMILES IDX 8 24 32 25 30 26 11 27 26 28 13 29 17 30 14 31 16 32 15 33
REMARK H PARENT
ROOT
ATOM      1  C   UNL     1      -1.463   2.975   0.000  1.00  0.00     0.305 C 
ATOM      2  O   UNL     1      -2.552   2.879   0.000  1.00  0.00    -0.252 OA
ENDROOT
BRANCH   1   3
ATOM      3  O   UNL     1      -1.001   4.402   0.000  1.00  0.00    -0.469 OA
ATOM      4  C   UNL     1      -2.005   5.516   0.000  1.00  0.00     0.282 C 
ENDBRANCH   1   3
BRANCH   1   5
ATOM      5  C   UNL     1      -0.458   1.861   0.000  1.00  0.00     0.128 C 
BRANCH   5   6
ATOM      6  C   UNL     1      -0.920   0.434   0.000  1.00  0.00     0.027 C 
ATOM      7  C   UNL     1       0.084  -0.679   0.000  1.00  0.00     0.024 C 
ATOM      8  C   UNL     1      -2.387   0.121   0.000  1.00  0.00     0.041 C 
ATOM      9  C   UNL     1       1.584  -0.678   0.000  1.00  0.00    -0.033 C 
ATOM     10  C   UNL     1      -0.378  -2.106   0.000  1.00  0.00     0.158 C 
ATOM     11  C   UNL     1      -3.503   1.124   0.000  1.00  0.00     0.161 C 
ATOM     12  C   UNL     1      -2.849  -1.306   0.000  1.00  0.00     0.047 C 
ATOM     13  C   UNL     1       2.797   0.205   0.000  1.00  0.00    -0.063 C 
ATOM     14  C   UNL     1       2.049  -2.104   0.000  1.00  0.00     0.146 C 
ATOM     15  O   UNL     1       0.836  -2.987   0.000  1.00  0.00    -0.367 OA
ATOM     16  C   UNL     1      -1.845  -2.420   0.000  1.00  0.00     0.153 C 
ATOM     17  C   UNL     1      -4.929   0.659   0.000  1.00  0.00     0.044 C 
ATOM     18  C   UNL     1      -4.219  -1.917   0.000  1.00  0.00     0.016 C 
ATOM     19  C   UNL     1       4.011  -0.676   0.000  1.00  0.00     0.051 C 
ATOM     20  C   UNL     1       3.549  -2.103   0.000  1.00  0.00     0.049 C 
ATOM     21  O   UNL     1      -2.594  -3.719   0.000  1.00  0.00    -0.374 OA
ATOM     22  C   UNL     1      -5.240  -0.808   0.000  1.00  0.00    -0.014 C 
ATOM     23  C   UNL     1      -4.061  -3.409   0.000  1.00  0.00     0.172 C 
ATOM     24  C   UNL     1       0.693   0.692   0.000  1.00  0.00     0.019 C 
ATOM     25  C   UNL     1      -3.049   0.566   0.000  1.00  0.00     0.021 C 
ATOM     26  O   UNL     1      -3.409   2.213   0.000  1.00  0.00    -0.294 OA
ATOM     27  C   UNL     1       2.796   1.705   0.000  1.00  0.00     0.040 C 
ATOM     28  C   UNL     1      -4.793  -1.364   0.000  1.00  0.00     0.019 C 
BRANCH  19  29
ATOM     29  C   UNL     1       5.438  -0.211   0.000  1.00  0.00    -0.002 A 
ATOM     30  C   UNL     1       5.900   1.216   0.000  1.00  0.00     0.199 A 
ATOM     31  C   UNL     1       6.652  -1.092   0.000  1.00  0.00     0.046 A 
ATOM     32  O   UNL     1       7.400   1.217   0.000  1.00  0.00    -0.472 OA
ATOM     33  C   UNL     1       7.865  -0.209   0.000  1.00  0.00     0.195 A 
ENDBRANCH  19  29
ENDBRANCH   5   6
ENDBRANCH   1   5
TORSDOF 4
