REMARK SMILES CC(=O)Oc1cc2c(C)ccc(C)c2cc1C(C)(C)OC(C)=O
REMARK SMILES IDX 5 1 6 2 7 3 8 4 9 5 10 6 11 7 12 8 13 9 14 10 15 11 16 12
REMARK SMILES IDX 4 13 2 14 1 15 3 16 17 17 18 18 19 19 20 20 21 21 22 22
REMARK SMILES IDX 23 23
REMARK H PARENT
ROOT
ATOM      1  C   UNL     1      -0.034  -1.242   0.000  1.00  0.00     0.138 A 
ATOM      2  C   UNL     1      -1.533  -1.201   0.000  1.00  0.00     0.056 A 
ATOM      3  C   UNL     1      -2.248   0.118   0.000  1.00  0.00    -0.011 A 
ATOM      4  C   UNL     1      -3.747   0.159   0.000  1.00  0.00    -0.043 A 
ATOM      5  C   UNL     1      -4.532  -1.120   0.000  1.00  0.00     0.045 C 
ATOM      6  C   UNL     1      -4.461   1.478   0.000  1.00  0.00     0.004 A 
ATOM      7  C   UNL     1      -3.676   2.756   0.000  1.00  0.00     0.004 A 
ATOM      8  C   UNL     1      -2.177   2.715   0.000  1.00  0.00    -0.043 A 
ATOM      9  C   UNL     1      -1.392   3.993   0.000  1.00  0.00     0.045 C 
ATOM     10  C   UNL     1      -1.462   1.396   0.000  1.00  0.00    -0.015 A 
ATOM     11  C   UNL     1       0.037   1.355   0.000  1.00  0.00     0.020 A 
ATOM     12  C   UNL     1       0.751   0.036   0.000  1.00  0.00     0.038 A 
ENDROOT
BRANCH   1  13
ATOM     13  O   UNL     1       0.680  -2.561   0.000  1.00  0.00    -0.426 OA
BRANCH  13  14
ATOM     14  C   UNL     1      -0.104  -3.839   0.000  1.00  0.00     0.308 C 
ATOM     15  C   UNL     1       0.610  -5.158   0.000  1.00  0.00     0.139 C 
ATOM     16  O   UNL     1      -1.604  -3.798   0.000  1.00  0.00    -0.252 OA
ENDBRANCH  13  14
ENDBRANCH   1  13
BRANCH  12  17
ATOM     17  C   UNL     1       2.251  -0.005   0.000  1.00  0.00     0.135 C 
ATOM     18  C   UNL     1       2.292   1.495   0.000  1.00  0.00     0.062 C 
ATOM     19  C   UNL     1       2.210  -1.504   0.000  1.00  0.00     0.062 C 
BRANCH  17  20
ATOM     20  O   UNL     1       3.750  -0.046   0.000  1.00  0.00    -0.455 OA
BRANCH  20  21
ATOM     21  C   UNL     1       4.535   1.232   0.000  1.00  0.00     0.303 C 
ATOM     22  C   UNL     1       6.035   1.192   0.000  1.00  0.00     0.139 C 
ATOM     23  O   UNL     1       3.821   2.551   0.000  1.00  0.00    -0.253 OA
ENDBRANCH  20  21
ENDBRANCH  17  20
ENDBRANCH  12  17
TORSDOF 5
