REMARK SMILES CC1=CC[C@]2(CC1)[C@H](C)CC[C@H]2C(C)(C)O
REMARK SMILES IDX 13 1 14 2 15 3 12 4 2 5 3 6 7 7 4 8 6 9 5 10 8 11 10 12
REMARK SMILES IDX 11 13 1 14 9 15 16 16
REMARK H PARENT 16 17
ROOT
ATOM      1  C   UNL     1       1.777  -1.284   0.000  1.00  0.00     0.062 C 
ATOM      2  C   UNL     1       0.334  -1.693   0.000  1.00  0.00     0.042 C 
ATOM      3  C   UNL     1       3.220  -0.875   0.000  1.00  0.00     0.042 C 
ENDROOT
BRANCH   1   4
ATOM      4  C   UNL     1       1.368   0.159   0.000  1.00  0.00     0.027 C 
ATOM      5  C   UNL     1      -2.532  -0.994   0.000  1.00  0.00    -0.077 C 
ATOM      6  C   UNL     1      -2.632   0.503   0.000  1.00  0.00    -0.027 C 
ATOM      7  C   UNL     1      -1.186  -1.655   0.000  1.00  0.00     0.031 C 
ATOM      8  C   UNL     1      -1.386   1.338   0.000  1.00  0.00     0.035 C 
ATOM      9  C   UNL     1       0.060  -0.820   0.000  1.00  0.00     0.012 C 
ATOM     10  C   UNL     1      -0.040   0.676   0.000  1.00  0.00    -0.018 C 
ATOM     11  C   UNL     1       0.017   2.175   0.000  1.00  0.00    -0.007 C 
ATOM     12  C   UNL     1       1.460   2.584   0.000  1.00  0.00     0.004 C 
ATOM     13  C   UNL     1       2.295   1.338   0.000  1.00  0.00     0.007 C 
ATOM     14  C   UNL     1      -3.778  -1.829   0.000  1.00  0.00     0.039 C 
ATOM     15  C   UNL     1      -1.162   3.102   0.000  1.00  0.00     0.008 C 
ENDBRANCH   1   4
BRANCH   1  16
ATOM     16  O   UNL     1       2.186  -2.727   0.000  1.00  0.00    -0.390 OA
ATOM     17  H   UNL     1       0.000   0.000   0.000  1.00  0.00     0.211 HD
ENDBRANCH   1  16
TORSDOF 2
