REMARK SMILES CC(C)(O)CC[C@@H](O)[C@](C)(O)[C@H]1CC=C2C3=CC(=O)C4C[C@@H](O)[C@@H](O)C[C@]4(C)C3CC[C@@]21C
REMARK SMILES IDX 6 1 5 2 2 3 1 4 3 5 4 6 7 8 8 9 9 11 10 12 11 13 12 15 13 16
REMARK SMILES IDX 32 17 14 18 31 19 15 20 30 21 16 22 29 23 17 24 27 25 18 26
REMARK SMILES IDX 26 27 20 28 24 29 21 30 22 31 33 32 28 33 19 34 25 35 23 37
REMARK H PARENT 4 7 8 10 11 14 25 36 23 38
ROOT
ATOM      1  C   UNL     1       4.291  -0.617   0.000  1.00  0.00     0.038 C 
ENDROOT
BRANCH   1   2
ATOM      2  C   UNL     1       3.847  -2.050   0.000  1.00  0.00     0.037 C 
BRANCH   2   3
ATOM      3  C   UNL     1       4.866  -3.151   0.000  1.00  0.00     0.059 C 
ATOM      4  C   UNL     1       5.967  -2.132   0.000  1.00  0.00     0.042 C 
ATOM      5  C   UNL     1       3.765  -4.170   0.000  1.00  0.00     0.042 C 
BRANCH   3   6
ATOM      6  O   UNL     1       5.885  -4.252   0.000  1.00  0.00    -0.390 OA
ATOM      7  H   UNL     1       0.000   0.000   0.000  1.00  0.00     0.211 HD
ENDBRANCH   3   6
ENDBRANCH   2   3
ENDBRANCH   1   2
BRANCH   1   8
ATOM      8  C   UNL     1       3.273   0.484   0.000  1.00  0.00     0.146 C 
BRANCH   8   9
ATOM      9  O   UNL     1       1.810   0.152   0.000  1.00  0.00    -0.390 OA
ATOM     10  H   UNL     1       0.000   0.000   0.000  1.00  0.00     0.211 HD
ENDBRANCH   8   9
BRANCH   8  11
ATOM     11  C   UNL     1       3.717   1.917   0.000  1.00  0.00     0.092 C 
ATOM     12  C   UNL     1       5.150   1.473   0.000  1.00  0.00     0.045 C 
BRANCH  11  13
ATOM     13  O   UNL     1       4.161   3.349   0.000  1.00  0.00    -0.387 OA
ATOM     14  H   UNL     1       0.000   0.000   0.000  1.00  0.00     0.211 HD
ENDBRANCH  11  13
BRANCH  11  15
ATOM     15  C   UNL     1       2.284   2.361   0.000  1.00  0.00     0.037 C 
ATOM     16  C   UNL     1       1.801   3.781   0.000  1.00  0.00     0.035 C 
ATOM     17  C   UNL     1       1.083   1.463   0.000  1.00  0.00    -0.002 C 
ATOM     18  C   UNL     1       0.301   3.761   0.000  1.00  0.00    -0.022 C 
ATOM     19  C   UNL     1       0.946  -0.031   0.000  1.00  0.00     0.012 C 
ATOM     20  C   UNL     1      -0.143   2.328   0.000  1.00  0.00    -0.042 C 
ATOM     21  C   UNL     1      -0.416  -0.659   0.000  1.00  0.00     0.010 C 
ATOM     22  C   UNL     1      -1.505   1.699   0.000  1.00  0.00    -0.037 C 
ATOM     23  C   UNL     1      -1.641   0.206   0.000  1.00  0.00     0.026 C 
ATOM     24  C   UNL     1      -2.730   2.565   0.000  1.00  0.00     0.051 C 
ATOM     25  C   UNL     1      -3.003  -0.423   0.000  1.00  0.00    -0.013 C 
ATOM     26  C   UNL     1      -4.092   1.936   0.000  1.00  0.00     0.159 C 
ATOM     27  C   UNL     1      -3.140  -1.917   0.000  1.00  0.00     0.042 C 
ATOM     28  C   UNL     1      -4.229   0.442   0.000  1.00  0.00     0.070 C 
ATOM     29  C   UNL     1      -4.502  -2.545   0.000  1.00  0.00     0.143 C 
ATOM     30  C   UNL     1      -5.590  -0.186   0.000  1.00  0.00     0.047 C 
ATOM     31  C   UNL     1      -5.727  -1.680   0.000  1.00  0.00     0.143 C 
ATOM     32  C   UNL     1       2.392   0.731   0.000  1.00  0.00     0.017 C 
ATOM     33  C   UNL     1      -1.778  -1.288   0.000  1.00  0.00     0.013 C 
ATOM     34  O   UNL     1      -5.317   2.801   0.000  1.00  0.00    -0.295 OA
BRANCH  29  35
ATOM     35  O   UNL     1      -4.638  -4.039   0.000  1.00  0.00    -0.390 OA
ATOM     36  H   UNL     1       0.000   0.000   0.000  1.00  0.00     0.211 HD
ENDBRANCH  29  35
BRANCH  31  37
ATOM     37  O   UNL     1      -7.089  -2.309   0.000  1.00  0.00    -0.390 OA
ATOM     38  H   UNL     1       0.000   0.000   0.000  1.00  0.00     0.211 HD
ENDBRANCH  31  37
ENDBRANCH  11  15
ENDBRANCH   8  11
ENDBRANCH   1   8
TORSDOF 10
