REMARK SMILES COc1cc(O)c2c(=O)c(O)c(-c3ccccc3)oc2c1
REMARK SMILES IDX 3 1 4 2 5 3 7 4 8 5 9 6 10 7 12 8 19 9 20 10 21 11 2 12 1 13
REMARK SMILES IDX 6 14 13 16 14 17 18 18 15 19 17 20 16 21 11 22
REMARK H PARENT 6 15 11 23
ROOT
ATOM      1  C   UNL     1      -3.627  -1.298   0.000  1.00  0.00     0.126 A 
ATOM      2  C   UNL     1      -3.999   0.155   0.000  1.00  0.00     0.093 A 
ATOM      3  C   UNL     1      -2.927   1.204   0.000  1.00  0.00     0.134 A 
ATOM      4  C   UNL     1      -1.482   0.800   0.000  1.00  0.00     0.111 A 
ATOM      5  C   UNL     1      -0.410   1.849   0.000  1.00  0.00     0.238 A 
ATOM      6  O   UNL     1      -0.782   3.302   0.000  1.00  0.00    -0.285 OA
ATOM      7  C   UNL     1       1.035   1.445   0.000  1.00  0.00     0.208 A 
ATOM      8  C   UNL     1       1.407  -0.008   0.000  1.00  0.00     0.180 A 
ATOM      9  O   UNL     1       0.335  -1.057   0.000  1.00  0.00    -0.452 OA
ATOM     10  C   UNL     1      -1.110  -0.653   0.000  1.00  0.00     0.146 A 
ATOM     11  C   UNL     1      -2.182  -1.702   0.000  1.00  0.00     0.094 A 
ENDROOT
BRANCH   1  12
ATOM     12  O   UNL     1      -4.699  -2.347   0.000  1.00  0.00    -0.496 OA
ATOM     13  C   UNL     1      -6.144  -1.942   0.000  1.00  0.00     0.278 C 
ENDBRANCH   1  12
BRANCH   3  14
ATOM     14  O   UNL     1      -3.299   2.657   0.000  1.00  0.00    -0.507 OA
ATOM     15  H   UNL     1       0.000   0.000   0.000  1.00  0.00     0.293 HD
ENDBRANCH   3  14
BRANCH   8  16
ATOM     16  C   UNL     1       2.852  -0.412   0.000  1.00  0.00     0.021 A 
ATOM     17  C   UNL     1       3.224  -1.865   0.000  1.00  0.00     0.012 A 
ATOM     18  C   UNL     1       3.924   0.636   0.000  1.00  0.00     0.012 A 
ATOM     19  C   UNL     1       4.668  -2.270   0.000  1.00  0.00     0.001 A 
ATOM     20  C   UNL     1       5.368   0.232   0.000  1.00  0.00     0.001 A 
ATOM     21  C   UNL     1       5.740  -1.221   0.000  1.00  0.00     0.000 A 
ENDBRANCH   8  16
BRANCH   7  22
ATOM     22  O   UNL     1       2.107   2.494   0.000  1.00  0.00    -0.502 OA
ATOM     23  H   UNL     1       0.000   0.000   0.000  1.00  0.00     0.293 HD
ENDBRANCH   7  22
TORSDOF 4
