REMARK SMILES C=C[C@@H]1[C@@H](O[C@@H]2O[C@H](CO)[C@@H](O)[C@H](O)[C@H]2O)OC=C2C(=O)OCC[C@@H]21
REMARK SMILES IDX 6 1 7 2 8 3 11 4 13 5 15 6 5 7 4 8 3 9 25 10 17 11 24 12
REMARK SMILES IDX 19 13 18 14 23 15 20 16 22 17 21 18 2 19 1 20 16 21 9 23
REMARK SMILES IDX 10 24 14 26 12 28
REMARK H PARENT 16 22 10 25 14 27 12 29
ROOT
ATOM      1  C   UNL     1      -1.897   0.511   0.000  1.00  0.00     0.286 C 
ATOM      2  O   UNL     1      -3.230   1.198   0.000  1.00  0.00    -0.341 OA
ATOM      3  C   UNL     1      -4.492   0.387   0.000  1.00  0.00     0.178 C 
ATOM      4  C   UNL     1      -4.421  -1.111   0.000  1.00  0.00     0.177 C 
ATOM      5  C   UNL     1      -3.088  -1.798   0.000  1.00  0.00     0.179 C 
ATOM      6  C   UNL     1      -1.826  -0.988   0.000  1.00  0.00     0.202 C 
ENDROOT
BRANCH   1   7
ATOM      7  O   UNL     1      -0.635   1.321   0.000  1.00  0.00    -0.310 OA
BRANCH   7   8
ATOM      8  C   UNL     1       0.698   0.634   0.000  1.00  0.00     0.316 C 
ATOM      9  C   UNL     1       1.960   1.445   0.000  1.00  0.00     0.088 C 
ATOM     10  C   UNL     1       3.293   0.757   0.000  1.00  0.00     0.046 C 
ATOM     11  O   UNL     1       0.769  -0.865   0.000  1.00  0.00    -0.471 OA
ATOM     12  C   UNL     1       4.555   1.568   0.000  1.00  0.00     0.051 C 
ATOM     13  C   UNL     1       3.365  -0.741   0.000  1.00  0.00     0.076 C 
ATOM     14  C   UNL     1       2.103  -1.552   0.000  1.00  0.00     0.202 C 
ATOM     15  C   UNL     1       5.888   0.880   0.000  1.00  0.00     0.234 C 
ATOM     16  C   UNL     1       4.698  -1.429   0.000  1.00  0.00     0.337 C 
ATOM     17  O   UNL     1       5.960  -0.618   0.000  1.00  0.00    -0.462 OA
ATOM     18  O   UNL     1       4.769  -2.927   0.000  1.00  0.00    -0.246 OA
BRANCH   9  19
ATOM     19  C   UNL     1       1.889   2.943   0.000  1.00  0.00    -0.024 C 
ATOM     20  C   UNL     1       0.556   3.630   0.000  1.00  0.00     0.004 C 
ENDBRANCH   9  19
ENDBRANCH   7   8
ENDBRANCH   1   7
BRANCH   6  21
ATOM     21  O   UNL     1      -0.493  -1.675   0.000  1.00  0.00    -0.385 OA
ATOM     22  H   UNL     1       0.000   0.000   0.000  1.00  0.00     0.211 HD
ENDBRANCH   6  21
BRANCH   3  23
ATOM     23  C   UNL     1      -5.825   1.075   0.000  1.00  0.00     0.191 C 
BRANCH  23  24
ATOM     24  O   UNL     1      -5.896   2.573   0.000  1.00  0.00    -0.394 OA
ATOM     25  H   UNL     1       0.000   0.000   0.000  1.00  0.00     0.210 HD
ENDBRANCH  23  24
ENDBRANCH   3  23
BRANCH   5  26
ATOM     26  O   UNL     1      -3.017  -3.297   0.000  1.00  0.00    -0.387 OA
ATOM     27  H   UNL     1       0.000   0.000   0.000  1.00  0.00     0.211 HD
ENDBRANCH   5  26
BRANCH   4  28
ATOM     28  O   UNL     1      -5.683  -1.922   0.000  1.00  0.00    -0.387 OA
ATOM     29  H   UNL     1       0.000   0.000   0.000  1.00  0.00     0.211 HD
ENDBRANCH   4  28
TORSDOF 8
