REMARK SMILES O=C(/C=C/c1ccc(O)c(O)c1)OC[C@H]1O[C@@H](OC(=O)/C=C/c2ccc(O)c(O)c2)[C@H](O)[C@@H](O)[C@@H]1O
REMARK SMILES IDX 15 1 16 2 17 3 31 4 33 5 35 6 14 7 13 8 2 9 1 10 3 11 4 12
REMARK SMILES IDX 5 13 6 14 12 15 7 16 10 17 8 18 11 19 9 21 36 23 18 25 19 26
REMARK SMILES IDX 20 27 21 28 22 29 23 30 24 31 30 32 25 33 28 34 26 35 29 36
REMARK SMILES IDX 27 38 34 40 32 42
REMARK H PARENT 11 20 9 22 36 24 29 37 27 39 34 41 32 43
ROOT
ATOM      1  C   UNL     1       0.601  -3.704   0.000  1.00  0.00     0.191 C 
ATOM      2  O   UNL     1      -0.347  -2.542   0.000  1.00  0.00    -0.331 OA
ATOM      3  C   UNL     1      -1.828  -2.783   0.000  1.00  0.00     0.343 C 
ATOM      4  C   UNL     1      -2.360  -4.185   0.000  1.00  0.00     0.214 C 
ATOM      5  C   UNL     1      -1.411  -5.347   0.000  1.00  0.00     0.181 C 
ATOM      6  C   UNL     1       0.069  -5.107   0.000  1.00  0.00     0.178 C 
ENDROOT
BRANCH   1   7
ATOM      7  C   UNL     1       2.082  -3.464   0.000  1.00  0.00     0.268 C 
BRANCH   7   8
ATOM      8  O   UNL     1       2.614  -2.062   0.000  1.00  0.00    -0.460 OA
BRANCH   8   9
ATOM      9  C   UNL     1       4.095  -1.821   0.000  1.00  0.00     0.330 C 
ATOM     10  O   UNL     1       5.043  -2.983   0.000  1.00  0.00    -0.247 OA
BRANCH   9  11
ATOM     11  C   UNL     1       4.627  -0.419   0.000  1.00  0.00     0.094 C 
BRANCH  11  12
ATOM     12  C   UNL     1       6.107  -0.178   0.000  1.00  0.00     0.016 C 
BRANCH  12  13
ATOM     13  C   UNL     1       6.640   1.224   0.000  1.00  0.00    -0.021 A 
ATOM     14  C   UNL     1       8.120   1.464   0.000  1.00  0.00     0.012 A 
ATOM     15  C   UNL     1       5.691   2.386   0.000  1.00  0.00     0.058 A 
ATOM     16  C   UNL     1       8.652   2.867   0.000  1.00  0.00     0.051 A 
ATOM     17  C   UNL     1       6.223   3.788   0.000  1.00  0.00     0.157 A 
ATOM     18  C   UNL     1       7.704   4.029   0.000  1.00  0.00     0.157 A 
BRANCH  17  19
ATOM     19  O   UNL     1       5.275   4.951   0.000  1.00  0.00    -0.504 OA
ATOM     20  H   UNL     1       0.000   0.000   0.000  1.00  0.00     0.293 HD
ENDBRANCH  17  19
BRANCH  18  21
ATOM     21  O   UNL     1       8.236   5.431   0.000  1.00  0.00    -0.504 OA
ATOM     22  H   UNL     1       0.000   0.000   0.000  1.00  0.00     0.293 HD
ENDBRANCH  18  21
ENDBRANCH  12  13
ENDBRANCH  11  12
ENDBRANCH   9  11
ENDBRANCH   8   9
ENDBRANCH   7   8
ENDBRANCH   1   7
BRANCH   6  23
ATOM     23  O   UNL     1       1.018  -6.269   0.000  1.00  0.00    -0.387 OA
ATOM     24  H   UNL     1       0.000   0.000   0.000  1.00  0.00     0.211 HD
ENDBRANCH   6  23
BRANCH   3  25
ATOM     25  O   UNL     1      -2.776  -1.621   0.000  1.00  0.00    -0.430 OA
BRANCH  25  26
ATOM     26  C   UNL     1      -2.244  -0.218   0.000  1.00  0.00     0.333 C 
ATOM     27  O   UNL     1      -0.763   0.022   0.000  1.00  0.00    -0.247 OA
BRANCH  26  28
ATOM     28  C   UNL     1      -3.192   0.944   0.000  1.00  0.00     0.094 C 
BRANCH  28  29
ATOM     29  C   UNL     1      -4.673   0.704   0.000  1.00  0.00     0.016 C 
BRANCH  29  30
ATOM     30  C   UNL     1      -5.622   1.866   0.000  1.00  0.00    -0.021 A 
ATOM     31  C   UNL     1      -5.089   3.268   0.000  1.00  0.00     0.012 A 
ATOM     32  C   UNL     1      -7.102   1.625   0.000  1.00  0.00     0.058 A 
ATOM     33  C   UNL     1      -6.038   4.430   0.000  1.00  0.00     0.051 A 
ATOM     34  C   UNL     1      -8.051   2.788   0.000  1.00  0.00     0.157 A 
ATOM     35  C   UNL     1      -7.519   4.190   0.000  1.00  0.00     0.157 A 
BRANCH  34  36
ATOM     36  O   UNL     1      -9.531   2.547   0.000  1.00  0.00    -0.504 OA
ATOM     37  H   UNL     1       0.000   0.000   0.000  1.00  0.00     0.293 HD
ENDBRANCH  34  36
BRANCH  35  38
ATOM     38  O   UNL     1      -8.467   5.352   0.000  1.00  0.00    -0.504 OA
ATOM     39  H   UNL     1       0.000   0.000   0.000  1.00  0.00     0.293 HD
ENDBRANCH  35  38
ENDBRANCH  29  30
ENDBRANCH  28  29
ENDBRANCH  26  28
ENDBRANCH  25  26
ENDBRANCH   3  25
BRANCH   5  40
ATOM     40  O   UNL     1      -1.944  -6.750   0.000  1.00  0.00    -0.387 OA
ATOM     41  H   UNL     1       0.000   0.000   0.000  1.00  0.00     0.211 HD
ENDBRANCH   5  40
BRANCH   4  42
ATOM     42  O   UNL     1      -3.841  -4.425   0.000  1.00  0.00    -0.384 OA
ATOM     43  H   UNL     1       0.000   0.000   0.000  1.00  0.00     0.211 HD
ENDBRANCH   4  42
TORSDOF 18
