REMARK SMILES COc1cc(OC(C)=O)c(-c2oc3cc(OC)c(OC)c(OC)c3c(=O)c2OC)cc1OC(C)=O
REMARK SMILES IDX 3 1 4 2 5 3 10 4 30 5 31 6 2 7 1 8 32 9 33 10 34 11 35 12
REMARK SMILES IDX 6 13 7 14 8 15 9 16 11 17 27 18 12 19 25 20 13 21 24 22
REMARK SMILES IDX 14 23 21 24 15 25 18 26 26 27 28 28 29 29 22 30 23 31 16 32
REMARK SMILES IDX 17 33 19 34 20 35
REMARK H PARENT
ROOT
ATOM      1  C   UNL     1      -4.560   0.384   0.000  1.00  0.00     0.165 A 
ATOM      2  C   UNL     1      -3.616   1.550   0.000  1.00  0.00     0.098 A 
ATOM      3  C   UNL     1      -2.135   1.315   0.000  1.00  0.00     0.145 A 
ATOM      4  C   UNL     1      -1.597  -0.085   0.000  1.00  0.00     0.068 A 
ATOM      5  C   UNL     1      -2.541  -1.251   0.000  1.00  0.00     0.067 A 
ATOM      6  C   UNL     1      -4.023  -1.016   0.000  1.00  0.00     0.173 A 
ENDROOT
BRANCH   1   7
ATOM      7  O   UNL     1      -6.042   0.619   0.000  1.00  0.00    -0.493 OA
ATOM      8  C   UNL     1      -6.579   2.019   0.000  1.00  0.00     0.278 C 
ENDBRANCH   1   7
BRANCH   6   9
ATOM      9  O   UNL     1      -4.967  -2.182   0.000  1.00  0.00    -0.423 OA
BRANCH   9  10
ATOM     10  C   UNL     1      -6.448  -1.947   0.000  1.00  0.00     0.308 C 
ATOM     11  C   UNL     1      -7.392  -3.113   0.000  1.00  0.00     0.139 C 
ATOM     12  O   UNL     1      -6.986  -0.547   0.000  1.00  0.00    -0.252 OA
ENDBRANCH   9  10
ENDBRANCH   6   9
BRANCH   3  13
ATOM     13  O   UNL     1      -1.191   2.481   0.000  1.00  0.00    -0.426 OA
BRANCH  13  14
ATOM     14  C   UNL     1      -1.728   3.881   0.000  1.00  0.00     0.308 C 
ATOM     15  C   UNL     1      -0.784   5.047   0.000  1.00  0.00     0.139 C 
ATOM     16  O   UNL     1      -3.210   4.116   0.000  1.00  0.00    -0.252 OA
ENDBRANCH  13  14
ENDBRANCH   3  13
BRANCH   4  17
ATOM     17  C   UNL     1      -0.116  -0.320   0.000  1.00  0.00     0.184 A 
ATOM     18  C   UNL     1       0.422  -1.720   0.000  1.00  0.00     0.211 A 
ATOM     19  O   UNL     1       0.828   0.846   0.000  1.00  0.00    -0.451 OA
ATOM     20  C   UNL     1       1.903  -1.955   0.000  1.00  0.00     0.239 A 
ATOM     21  C   UNL     1       2.310   0.611   0.000  1.00  0.00     0.146 A 
ATOM     22  C   UNL     1       2.847  -0.789   0.000  1.00  0.00     0.115 A 
ATOM     23  C   UNL     1       3.254   1.777   0.000  1.00  0.00     0.098 A 
ATOM     24  C   UNL     1       4.329  -1.024   0.000  1.00  0.00     0.179 A 
ATOM     25  C   UNL     1       4.735   1.542   0.000  1.00  0.00     0.168 A 
ATOM     26  C   UNL     1       5.273   0.142   0.000  1.00  0.00     0.204 A 
ATOM     27  O   UNL     1       2.441  -3.355   0.000  1.00  0.00    -0.285 OA
BRANCH  18  28
ATOM     28  O   UNL     1      -0.522  -2.886   0.000  1.00  0.00    -0.490 OA
ATOM     29  C   UNL     1      -2.004  -2.651   0.000  1.00  0.00     0.278 C 
ENDBRANCH  18  28
BRANCH  24  30
ATOM     30  O   UNL     1       4.866  -2.424   0.000  1.00  0.00    -0.492 OA
ATOM     31  C   UNL     1       6.348  -2.659   0.000  1.00  0.00     0.278 C 
ENDBRANCH  24  30
BRANCH  25  32
ATOM     32  O   UNL     1       5.679   2.708   0.000  1.00  0.00    -0.493 OA
ATOM     33  C   UNL     1       7.161   2.473   0.000  1.00  0.00     0.278 C 
ENDBRANCH  25  32
BRANCH  26  34
ATOM     34  O   UNL     1       6.754  -0.093   0.000  1.00  0.00    -0.490 OA
ATOM     35  C   UNL     1       7.292  -1.493   0.000  1.00  0.00     0.278 C 
ENDBRANCH  26  34
ENDBRANCH   4  17
TORSDOF 10
