REMARK SMILES COc1cc(/C=C/CO)cc(OC)c1O[C@@H]1O[C@H](CO)[C@@H](O)[C@H](O)[C@H]1O
REMARK SMILES IDX 3 1 4 2 5 3 10 4 11 5 14 6 2 7 1 8 15 9 16 10 17 11 25 12
REMARK SMILES IDX 18 13 23 14 21 15 26 16 19 18 20 19 24 21 22 23 6 25 7 26
REMARK SMILES IDX 8 27 9 28 12 30 13 31
REMARK H PARENT 26 17 20 20 24 22 22 24 9 29
ROOT
ATOM      1  C   UNL     1      -0.803  -0.573   0.000  1.00  0.00     0.165 A 
ATOM      2  C   UNL     1      -2.106  -1.315   0.000  1.00  0.00     0.058 A 
ATOM      3  C   UNL     1      -3.401  -0.558   0.000  1.00  0.00    -0.018 A 
ATOM      4  C   UNL     1      -3.392   0.942   0.000  1.00  0.00     0.058 A 
ATOM      5  C   UNL     1      -2.089   1.685   0.000  1.00  0.00     0.165 A 
ATOM      6  C   UNL     1      -0.794   0.927   0.000  1.00  0.00     0.206 A 
ENDROOT
BRANCH   1   7
ATOM      7  O   UNL     1       0.492  -1.330   0.000  1.00  0.00    -0.493 OA
ATOM      8  C   UNL     1       0.484  -2.830   0.000  1.00  0.00     0.278 C 
ENDBRANCH   1   7
BRANCH   6   9
ATOM      9  O   UNL     1       0.509   1.670   0.000  1.00  0.00    -0.454 OA
BRANCH   9  10
ATOM     10  C   UNL     1       1.804   0.913   0.000  1.00  0.00     0.339 C 
ATOM     11  O   UNL     1       1.796  -0.587   0.000  1.00  0.00    -0.332 OA
ATOM     12  C   UNL     1       3.107   1.656   0.000  1.00  0.00     0.214 C 
ATOM     13  C   UNL     1       3.090  -1.344   0.000  1.00  0.00     0.179 C 
ATOM     14  C   UNL     1       4.402   0.899   0.000  1.00  0.00     0.180 C 
ATOM     15  C   UNL     1       4.394  -0.601   0.000  1.00  0.00     0.177 C 
BRANCH  12  16
ATOM     16  O   UNL     1       3.115   3.156   0.000  1.00  0.00    -0.384 OA
ATOM     17  H   UNL     1       0.000   0.000   0.000  1.00  0.00     0.211 HD
ENDBRANCH  12  16
BRANCH  13  18
ATOM     18  C   UNL     1       3.082  -2.844   0.000  1.00  0.00     0.191 C 
BRANCH  18  19
ATOM     19  O   UNL     1       4.377  -3.601   0.000  1.00  0.00    -0.394 OA
ATOM     20  H   UNL     1       0.000   0.000   0.000  1.00  0.00     0.210 HD
ENDBRANCH  18  19
ENDBRANCH  13  18
BRANCH  14  21
ATOM     21  O   UNL     1       5.705   1.642   0.000  1.00  0.00    -0.387 OA
ATOM     22  H   UNL     1       0.000   0.000   0.000  1.00  0.00     0.211 HD
ENDBRANCH  14  21
BRANCH  15  23
ATOM     23  O   UNL     1       5.688  -1.358   0.000  1.00  0.00    -0.387 OA
ATOM     24  H   UNL     1       0.000   0.000   0.000  1.00  0.00     0.211 HD
ENDBRANCH  15  23
ENDBRANCH   9  10
ENDBRANCH   6   9
BRANCH   3  25
ATOM     25  C   UNL     1      -4.704  -1.301   0.000  1.00  0.00     0.006 C 
BRANCH  25  26
ATOM     26  C   UNL     1      -5.999  -0.544   0.000  1.00  0.00     0.001 C 
BRANCH  26  27
ATOM     27  C   UNL     1      -7.302  -1.287   0.000  1.00  0.00     0.183 C 
BRANCH  27  28
ATOM     28  O   UNL     1      -8.597  -0.530   0.000  1.00  0.00    -0.392 OA
ATOM     29  H   UNL     1       0.000   0.000   0.000  1.00  0.00     0.210 HD
ENDBRANCH  27  28
ENDBRANCH  26  27
ENDBRANCH  25  26
ENDBRANCH   3  25
BRANCH   5  30
ATOM     30  O   UNL     1      -2.081   3.185   0.000  1.00  0.00    -0.493 OA
ATOM     31  C   UNL     1      -0.778   3.927   0.000  1.00  0.00     0.278 C 
ENDBRANCH   5  30
TORSDOF 13
