REMARK SMILES C/C=C(\C)C(=O)O[C@H]1CC[C@]23C[C@]24CC[C@]2(C)C(C(C)CCC(C)C(C)C)CC[C@@]2(C)C4CCC3C1(C)C
REMARK SMILES IDX 8 1 9 2 10 3 11 4 12 5 13 6 14 7 15 8 16 9 17 10 18 11 28 12
REMARK SMILES IDX 29 13 30 14 31 15 32 16 33 17 34 18 35 19 36 20 37 21 38 22
REMARK SMILES IDX 7 23 5 24 6 25 3 26 4 27 2 28 1 29 19 30 20 31 21 32 22 33
REMARK SMILES IDX 23 34 24 35 25 36 26 37 27 38
REMARK H PARENT
ROOT
ATOM      1  C   UNL     1       4.362   0.175   0.000  1.00  0.00     0.182 C 
ATOM      2  C   UNL     1       3.450  -1.015   0.000  1.00  0.00     0.046 C 
ATOM      3  C   UNL     1       1.962  -0.820   0.000  1.00  0.00     0.012 C 
ATOM      4  C   UNL     1       1.388   0.566   0.000  1.00  0.00    -0.020 C 
ATOM      5  C   UNL     1       0.475  -0.625   0.000  1.00  0.00     0.015 C 
ATOM      6  C   UNL     1      -0.100   0.761   0.000  1.00  0.00    -0.020 C 
ATOM      7  C   UNL     1      -1.012  -0.430   0.000  1.00  0.00     0.008 C 
ATOM      8  C   UNL     1      -2.499  -0.234   0.000  1.00  0.00     0.008 C 
ATOM      9  C   UNL     1      -3.074   1.151   0.000  1.00  0.00    -0.024 C 
ATOM     10  C   UNL     1      -4.106   0.062   0.000  1.00  0.00     0.012 C 
ATOM     11  C   UNL     1      -4.488   1.651   0.000  1.00  0.00    -0.002 C 
ATOM     12  C   UNL     1      -4.450   3.151   0.000  1.00  0.00     0.005 C 
ATOM     13  C   UNL     1      -3.012   3.577   0.000  1.00  0.00     0.008 C 
ATOM     14  C   UNL     1      -2.162   2.341   0.000  1.00  0.00    -0.024 C 
ATOM     15  C   UNL     1      -1.378   3.621   0.000  1.00  0.00     0.012 C 
ATOM     16  C   UNL     1      -0.674   2.146   0.000  1.00  0.00     0.002 C 
ATOM     17  C   UNL     1       0.238   3.337   0.000  1.00  0.00     0.005 C 
ATOM     18  C   UNL     1       1.726   3.142   0.000  1.00  0.00     0.005 C 
ATOM     19  C   UNL     1       2.300   1.756   0.000  1.00  0.00     0.005 C 
ATOM     20  C   UNL     1       3.788   1.561   0.000  1.00  0.00     0.005 C 
ATOM     21  C   UNL     1       3.721   3.059   0.000  1.00  0.00     0.015 C 
ATOM     22  C   UNL     1       5.252   1.886   0.000  1.00  0.00     0.015 C 
ENDROOT
BRANCH   1  23
ATOM     23  O   UNL     1       5.849  -0.020   0.000  1.00  0.00    -0.458 OA
BRANCH  23  24
ATOM     24  C   UNL     1       6.424  -1.405   0.000  1.00  0.00     0.333 C 
ATOM     25  O   UNL     1       5.511  -2.596   0.000  1.00  0.00    -0.247 OA
BRANCH  24  26
ATOM     26  C   UNL     1       7.911  -1.600   0.000  1.00  0.00     0.030 C 
ATOM     27  C   UNL     1       8.824  -0.410   0.000  1.00  0.00     0.052 C 
BRANCH  26  28
ATOM     28  C   UNL     1       8.486  -2.986   0.000  1.00  0.00    -0.020 C 
ATOM     29  C   UNL     1       9.973  -3.181   0.000  1.00  0.00     0.036 C 
ENDBRANCH  26  28
ENDBRANCH  24  26
ENDBRANCH  23  24
ENDBRANCH   1  23
BRANCH  11  30
ATOM     30  C   UNL     1      -5.724   0.801   0.000  1.00  0.00    -0.011 C 
ATOM     31  C   UNL     1      -7.078   1.446   0.000  1.00  0.00     0.008 C 
BRANCH  30  32
ATOM     32  C   UNL     1      -5.606  -0.694   0.000  1.00  0.00     0.004 C 
BRANCH  32  33
ATOM     33  C   UNL     1      -6.842  -1.545   0.000  1.00  0.00     0.004 C 
BRANCH  33  34
ATOM     34  C   UNL     1      -6.723  -3.040   0.000  1.00  0.00    -0.012 C 
ATOM     35  C   UNL     1      -7.959  -3.890   0.000  1.00  0.00     0.008 C 
BRANCH  34  36
ATOM     36  C   UNL     1      -5.369  -3.685   0.000  1.00  0.00    -0.015 C 
ATOM     37  C   UNL     1      -5.251  -5.180   0.000  1.00  0.00     0.007 C 
ATOM     38  C   UNL     1      -4.133  -2.835   0.000  1.00  0.00     0.007 C 
ENDBRANCH  34  36
ENDBRANCH  33  34
ENDBRANCH  32  33
ENDBRANCH  30  32
ENDBRANCH  11  30
TORSDOF 9
