REMARK SMILES C=C[C@]1(C)C=C2CC[C@H]3C(C)(C)CCC[C@]3(C)[C@H]2CC1
REMARK SMILES IDX 3 1 4 2 5 3 6 4 7 5 8 6 9 7 10 8 11 9 12 10 13 11 14 12
REMARK SMILES IDX 15 13 16 14 17 15 18 16 19 17 20 18 2 19 1 20
REMARK H PARENT
ROOT
ATOM      1  C   UNL     1       3.414   0.328   0.000  1.00  0.00     0.003 C 
ATOM      2  C   UNL     1       4.622   1.216   0.000  1.00  0.00     0.020 C 
ATOM      3  C   UNL     1       2.582  -0.920   0.000  1.00  0.00    -0.017 C 
ATOM      4  C   UNL     1       1.085  -0.824   0.000  1.00  0.00    -0.070 C 
ATOM      5  C   UNL     1       0.253  -2.072   0.000  1.00  0.00     0.031 C 
ATOM      6  C   UNL     1      -1.244  -1.976   0.000  1.00  0.00     0.009 C 
ATOM      7  C   UNL     1      -1.909  -0.631   0.000  1.00  0.00     0.001 C 
ATOM      8  C   UNL     1      -3.406  -0.535   0.000  1.00  0.00    -0.032 C 
ATOM      9  C   UNL     1      -4.845  -0.956   0.000  1.00  0.00     0.011 C 
ATOM     10  C   UNL     1      -3.241  -2.026   0.000  1.00  0.00     0.011 C 
ATOM     11  C   UNL     1      -4.071   0.810   0.000  1.00  0.00     0.007 C 
ATOM     12  C   UNL     1      -3.239   2.058   0.000  1.00  0.00     0.001 C 
ATOM     13  C   UNL     1      -1.742   1.961   0.000  1.00  0.00     0.008 C 
ATOM     14  C   UNL     1      -1.077   0.617   0.000  1.00  0.00    -0.023 C 
ATOM     15  C   UNL     1      -0.245   1.865   0.000  1.00  0.00     0.012 C 
ATOM     16  C   UNL     1       0.420   0.520   0.000  1.00  0.00     0.021 C 
ATOM     17  C   UNL     1       1.252   1.769   0.000  1.00  0.00     0.010 C 
ATOM     18  C   UNL     1       2.749   1.672   0.000  1.00  0.00     0.015 C 
ENDROOT
BRANCH   1  19
ATOM     19  C   UNL     1       4.498  -0.708   0.000  1.00  0.00    -0.024 C 
ATOM     20  C   UNL     1       4.144  -2.166   0.000  1.00  0.00     0.005 C 
ENDBRANCH   1  19
TORSDOF 1
