REMARK SMILES O=C1C=CC[C@H](C[C@@H](O)C[C@@H](O)C[C@@H](O)/C=C/c2ccccc2)O1
REMARK SMILES IDX 11 1 10 2 8 3 7 4 6 5 2 6 3 7 24 8 4 9 5 10 1 11 9 12 12 14
REMARK SMILES IDX 13 16 14 17 15 18 16 20 17 21 18 22 19 23 23 24 20 25 22 26
REMARK SMILES IDX 21 27
REMARK H PARENT 9 13 12 15 15 19
ROOT
ATOM      1  C   UNL     1      -0.262   0.076   0.000  1.00  0.00     0.119 C 
ENDROOT
BRANCH   1   2
ATOM      2  C   UNL     1      -1.416   1.034   0.000  1.00  0.00     0.063 C 
BRANCH   2   3
ATOM      3  C   UNL     1      -2.823   0.513   0.000  1.00  0.00     0.120 C 
BRANCH   3   4
ATOM      4  C   UNL     1      -3.977   1.470   0.000  1.00  0.00     0.077 C 
BRANCH   4   5
ATOM      5  C   UNL     1      -5.384   0.950   0.000  1.00  0.00     0.183 C 
ATOM      6  C   UNL     1      -7.043  -1.050   0.000  1.00  0.00     0.330 C 
ATOM      7  C   UNL     1      -8.197  -0.093   0.000  1.00  0.00     0.089 C 
ATOM      8  O   UNL     1      -5.636  -0.529   0.000  1.00  0.00    -0.459 OA
ATOM      9  C   UNL     1      -7.945   1.386   0.000  1.00  0.00    -0.016 C 
ATOM     10  C   UNL     1      -6.538   1.907   0.000  1.00  0.00     0.073 C 
ATOM     11  O   UNL     1      -7.295  -2.529   0.000  1.00  0.00    -0.247 OA
ENDBRANCH   4   5
ENDBRANCH   3   4
BRANCH   3  12
ATOM     12  O   UNL     1      -3.075  -0.966   0.000  1.00  0.00    -0.393 OA
ATOM     13  H   UNL     1       0.000   0.000   0.000  1.00  0.00     0.210 HD
ENDBRANCH   3  12
ENDBRANCH   2   3
ENDBRANCH   1   2
BRANCH   1  14
ATOM     14  O   UNL     1      -0.514  -1.402   0.000  1.00  0.00    -0.393 OA
ATOM     15  H   UNL     1       0.000   0.000   0.000  1.00  0.00     0.210 HD
ENDBRANCH   1  14
BRANCH   1  16
ATOM     16  C   UNL     1       1.145   0.597   0.000  1.00  0.00     0.068 C 
BRANCH  16  17
ATOM     17  C   UNL     1       2.300  -0.360   0.000  1.00  0.00     0.140 C 
BRANCH  17  18
ATOM     18  O   UNL     1       2.047  -1.839   0.000  1.00  0.00    -0.389 OA
ATOM     19  H   UNL     1       0.000   0.000   0.000  1.00  0.00     0.211 HD
ENDBRANCH  17  18
BRANCH  17  20
ATOM     20  C   UNL     1       3.706   0.161   0.000  1.00  0.00     0.005 C 
BRANCH  20  21
ATOM     21  C   UNL     1       4.861  -0.797   0.000  1.00  0.00     0.006 C 
BRANCH  21  22
ATOM     22  C   UNL     1       6.267  -0.276   0.000  1.00  0.00    -0.026 A 
ATOM     23  C   UNL     1       7.422  -1.234   0.000  1.00  0.00     0.008 A 
ATOM     24  C   UNL     1       6.519   1.203   0.000  1.00  0.00     0.008 A 
ATOM     25  C   UNL     1       8.829  -0.713   0.000  1.00  0.00     0.001 A 
ATOM     26  C   UNL     1       7.926   1.724   0.000  1.00  0.00     0.001 A 
ATOM     27  C   UNL     1       9.081   0.766   0.000  1.00  0.00     0.000 A 
ENDBRANCH  21  22
ENDBRANCH  20  21
ENDBRANCH  17  20
ENDBRANCH  16  17
ENDBRANCH   1  16
TORSDOF 12
