REMARK SMILES CC(C)=CCCC(C)=CCNC(=N)NCC=C(C)CCC=C(C)C
REMARK SMILES IDX 11 1 12 2 14 3 10 6 9 7 7 8 8 9 6 10 5 11 4 12 2 13 1 14
REMARK SMILES IDX 3 15 13 16 15 18 16 19 17 20 18 21 19 22 20 23 21 24 22 25
REMARK SMILES IDX 23 26 24 27
REMARK H PARENT 11 4 14 5 13 17
ROOT
ATOM      1  N   UNL     1      -1.486  -0.201   0.000  1.00  0.00    -0.353 N 
ATOM      2  C   UNL     1       0.000   0.000   0.000  1.00  0.00     0.188 C 
ATOM      3  N   UNL     1       0.917  -1.187   0.000  1.00  0.00    -0.353 N 
ATOM      4  H   UNL     1       0.000   0.000   0.000  1.00  0.00     0.163 HD
ATOM      5  H   UNL     1       0.000   0.000   0.000  1.00  0.00     0.163 HD
ENDROOT
BRANCH   1   6
ATOM      6  C   UNL     1      -2.404   0.986   0.000  1.00  0.00     0.143 C 
BRANCH   6   7
ATOM      7  C   UNL     1      -3.890   0.786   0.000  1.00  0.00    -0.007 C 
BRANCH   7   8
ATOM      8  C   UNL     1      -4.807   1.973   0.000  1.00  0.00    -0.075 C 
ATOM      9  C   UNL     1      -4.237   3.361   0.000  1.00  0.00     0.039 C 
BRANCH   8  10
ATOM     10  C   UNL     1      -6.294   1.772   0.000  1.00  0.00     0.034 C 
BRANCH  10  11
ATOM     11  C   UNL     1      -6.863   0.385   0.000  1.00  0.00     0.032 C 
BRANCH  11  12
ATOM     12  C   UNL     1      -8.350   0.184   0.000  1.00  0.00    -0.028 C 
BRANCH  12  13
ATOM     13  C   UNL     1      -8.919  -1.204   0.000  1.00  0.00    -0.080 C 
ATOM     14  C   UNL     1     -10.406  -1.404   0.000  1.00  0.00     0.039 C 
ATOM     15  C   UNL     1      -8.002  -2.391   0.000  1.00  0.00     0.039 C 
ENDBRANCH  12  13
ENDBRANCH  11  12
ENDBRANCH  10  11
ENDBRANCH   8  10
ENDBRANCH   7   8
ENDBRANCH   6   7
ENDBRANCH   1   6
BRANCH   2  16
ATOM     16  N   UNL     1       0.570   1.388   0.000  1.00  0.00    -0.269 NA
ATOM     17  H   UNL     1       0.000   0.000   0.000  1.00  0.00     0.191 HD
ENDBRANCH   2  16
BRANCH   3  18
ATOM     18  C   UNL     1       2.404  -0.986   0.000  1.00  0.00     0.143 C 
BRANCH  18  19
ATOM     19  C   UNL     1       3.321  -2.174   0.000  1.00  0.00    -0.007 C 
BRANCH  19  20
ATOM     20  C   UNL     1       4.807  -1.973   0.000  1.00  0.00    -0.075 C 
ATOM     21  C   UNL     1       5.724  -3.160   0.000  1.00  0.00     0.039 C 
BRANCH  20  22
ATOM     22  C   UNL     1       5.377  -0.585   0.000  1.00  0.00     0.034 C 
BRANCH  22  23
ATOM     23  C   UNL     1       6.863  -0.385   0.000  1.00  0.00     0.032 C 
BRANCH  23  24
ATOM     24  C   UNL     1       7.433   1.003   0.000  1.00  0.00    -0.028 C 
BRANCH  24  25
ATOM     25  C   UNL     1       8.919   1.204   0.000  1.00  0.00    -0.080 C 
ATOM     26  C   UNL     1       9.489   2.591   0.000  1.00  0.00     0.039 C 
ATOM     27  C   UNL     1       9.836   0.017   0.000  1.00  0.00     0.039 C 
ENDBRANCH  24  25
ENDBRANCH  23  24
ENDBRANCH  22  23
ENDBRANCH  20  22
ENDBRANCH  19  20
ENDBRANCH  18  19
ENDBRANCH   3  18
TORSDOF 15
