REMARK SMILES C=C[C@H]1[C@H](O[C@@H]2O[C@H](CO)[C@@H](O)[C@H](O)[C@H]2O)OC=C(C(=O)OC)[C@H]1CC(=O)O
REMARK SMILES IDX 3 1 4 2 17 3 18 4 19 5 24 6 2 7 1 8 5 9 6 10 7 11 15 12 8 13
REMARK SMILES IDX 13 14 11 15 16 16 9 18 10 19 14 21 12 23 25 25 26 26 27 27
REMARK SMILES IDX 28 28 20 30 21 31 22 32 23 33
REMARK H PARENT 16 17 10 20 14 22 12 24 28 29
ROOT
ATOM      1  C   UNL     1       1.573  -1.117   0.000  1.00  0.00     0.089 C 
ATOM      2  C   UNL     1       0.222  -0.467   0.000  1.00  0.00     0.316 C 
ATOM      3  O   UNL     1       0.108   1.029   0.000  1.00  0.00    -0.471 OA
ATOM      4  C   UNL     1       1.347   1.875   0.000  1.00  0.00     0.202 C 
ATOM      5  C   UNL     1       2.699   1.225   0.000  1.00  0.00     0.076 C 
ATOM      6  C   UNL     1       2.812  -0.271   0.000  1.00  0.00     0.054 C 
ENDROOT
BRANCH   1   7
ATOM      7  C   UNL     1       1.687  -2.612   0.000  1.00  0.00    -0.024 C 
ATOM      8  C   UNL     1       0.448  -3.458   0.000  1.00  0.00     0.004 C 
ENDBRANCH   1   7
BRANCH   2   9
ATOM      9  O   UNL     1      -1.017  -1.313   0.000  1.00  0.00    -0.310 OA
BRANCH   9  10
ATOM     10  C   UNL     1      -2.369  -0.663   0.000  1.00  0.00     0.286 C 
ATOM     11  O   UNL     1      -2.482   0.833   0.000  1.00  0.00    -0.341 OA
ATOM     12  C   UNL     1      -3.608  -1.509   0.000  1.00  0.00     0.202 C 
ATOM     13  C   UNL     1      -3.834   1.483   0.000  1.00  0.00     0.178 C 
ATOM     14  C   UNL     1      -4.960  -0.859   0.000  1.00  0.00     0.179 C 
ATOM     15  C   UNL     1      -5.073   0.637   0.000  1.00  0.00     0.177 C 
BRANCH  12  16
ATOM     16  O   UNL     1      -3.495  -3.005   0.000  1.00  0.00    -0.385 OA
ATOM     17  H   UNL     1       0.000   0.000   0.000  1.00  0.00     0.211 HD
ENDBRANCH  12  16
BRANCH  13  18
ATOM     18  C   UNL     1      -3.948   2.978   0.000  1.00  0.00     0.191 C 
BRANCH  18  19
ATOM     19  O   UNL     1      -2.709   3.824   0.000  1.00  0.00    -0.394 OA
ATOM     20  H   UNL     1       0.000   0.000   0.000  1.00  0.00     0.210 HD
ENDBRANCH  18  19
ENDBRANCH  13  18
BRANCH  14  21
ATOM     21  O   UNL     1      -6.199  -1.705   0.000  1.00  0.00    -0.387 OA
ATOM     22  H   UNL     1       0.000   0.000   0.000  1.00  0.00     0.211 HD
ENDBRANCH  14  21
BRANCH  15  23
ATOM     23  O   UNL     1      -6.425   1.286   0.000  1.00  0.00    -0.387 OA
ATOM     24  H   UNL     1       0.000   0.000   0.000  1.00  0.00     0.211 HD
ENDBRANCH  15  23
ENDBRANCH   9  10
ENDBRANCH   2   9
BRANCH   6  25
ATOM     25  C   UNL     1       4.164  -0.920   0.000  1.00  0.00     0.132 C 
BRANCH  25  26
ATOM     26  C   UNL     1       4.277  -2.416   0.000  1.00  0.00     0.303 C 
ATOM     27  O   UNL     1       3.039  -3.262   0.000  1.00  0.00    -0.252 OA
BRANCH  26  28
ATOM     28  O   UNL     1       5.629  -3.066   0.000  1.00  0.00    -0.481 OA
ATOM     29  H   UNL     1       0.000   0.000   0.000  1.00  0.00     0.296 HD
ENDBRANCH  26  28
ENDBRANCH  25  26
ENDBRANCH   6  25
BRANCH   5  30
ATOM     30  C   UNL     1       3.938   2.071   0.000  1.00  0.00     0.337 C 
ATOM     31  O   UNL     1       5.290   1.421   0.000  1.00  0.00    -0.246 OA
BRANCH  30  32
ATOM     32  O   UNL     1       3.824   3.567   0.000  1.00  0.00    -0.466 OA
ATOM     33  C   UNL     1       5.063   4.413   0.000  1.00  0.00     0.282 C 
ENDBRANCH  30  32
ENDBRANCH   5  30
TORSDOF 13
