REMARK SMILES CC1(C)CC[C@]2(C(=O)O)CC[C@]3(C)C(=CC[C@@H]4[C@@]5(C)CCC(=O)C(C)(C)[C@@H]5CC[C@]43C)[C@@H]2C1
REMARK SMILES IDX 7 1 8 2 6 3 2 4 4 5 33 6 5 7 32 8 14 9 10 10 12 11 15 12
REMARK SMILES IDX 11 13 30 14 16 15 29 16 17 17 28 18 18 19 27 20 20 21 24 22
REMARK SMILES IDX 21 23 22 24 1 25 3 26 13 27 31 28 19 29 25 30 26 31 23 32
REMARK SMILES IDX 9 33
REMARK H PARENT 9 34
ROOT
ATOM      1  C   UNL     1      -4.321   2.061   0.000  1.00  0.00     0.310 C 
ATOM      2  O   UNL     1      -5.820   2.093   0.000  1.00  0.00    -0.252 OA
ENDROOT
BRANCH   1   3
ATOM      3  C   UNL     1      -3.599   0.746   0.000  1.00  0.00     0.074 C 
ATOM      4  C   UNL     1      -5.154  -1.819   0.000  1.00  0.00    -0.035 C 
ATOM      5  C   UNL     1      -5.876  -0.505   0.000  1.00  0.00     0.007 C 
ATOM      6  C   UNL     1      -3.654  -1.851   0.000  1.00  0.00     0.015 C 
ATOM      7  C   UNL     1      -5.098   0.778   0.000  1.00  0.00     0.020 C 
ATOM      8  C   UNL     1      -2.876  -0.569   0.000  1.00  0.00     0.033 C 
ATOM      9  C   UNL     1      -1.377  -0.601   0.000  1.00  0.00    -0.063 C 
ATOM     10  C   UNL     1      -2.821   2.029   0.000  1.00  0.00     0.020 C 
ATOM     11  C   UNL     1      -0.599   0.682   0.000  1.00  0.00    -0.006 C 
ATOM     12  C   UNL     1      -0.655  -1.915   0.000  1.00  0.00    -0.027 C 
ATOM     13  C   UNL     1      -1.321   1.997   0.000  1.00  0.00     0.013 C 
ATOM     14  C   UNL     1       0.900   0.650   0.000  1.00  0.00    -0.020 C 
ATOM     15  C   UNL     1       0.845  -1.947   0.000  1.00  0.00     0.032 C 
ATOM     16  C   UNL     1       1.678   1.933   0.000  1.00  0.00     0.008 C 
ATOM     17  C   UNL     1       1.623  -0.665   0.000  1.00  0.00     0.006 C 
ATOM     18  C   UNL     1       3.178   1.901   0.000  1.00  0.00     0.006 C 
ATOM     19  C   UNL     1       3.122  -0.697   0.000  1.00  0.00    -0.025 C 
ATOM     20  C   UNL     1       3.900   0.586   0.000  1.00  0.00     0.008 C 
ATOM     21  C   UNL     1       3.844  -2.011   0.000  1.00  0.00     0.015 C 
ATOM     22  C   UNL     1       5.399   0.554   0.000  1.00  0.00     0.027 C 
ATOM     23  C   UNL     1       5.344  -2.043   0.000  1.00  0.00     0.077 C 
ATOM     24  C   UNL     1       6.122  -0.760   0.000  1.00  0.00     0.138 C 
ATOM     25  C   UNL     1      -4.925  -3.302   0.000  1.00  0.00     0.011 C 
ATOM     26  C   UNL     1      -6.574  -2.302   0.000  1.00  0.00     0.011 C 
ATOM     27  C   UNL     1       0.123  -0.633   0.000  1.00  0.00     0.017 C 
ATOM     28  C   UNL     1       0.178   1.965   0.000  1.00  0.00     0.012 C 
ATOM     29  C   UNL     1       2.345  -1.979   0.000  1.00  0.00     0.012 C 
ATOM     30  C   UNL     1       5.170   2.037   0.000  1.00  0.00     0.020 C 
ATOM     31  C   UNL     1       6.820   1.037   0.000  1.00  0.00     0.020 C 
ATOM     32  O   UNL     1       7.621  -0.792   0.000  1.00  0.00    -0.299 OA
ENDBRANCH   1   3
BRANCH   1  33
ATOM     33  O   UNL     1      -3.543   3.344   0.000  1.00  0.00    -0.481 OA
ATOM     34  H   UNL     1       0.000   0.000   0.000  1.00  0.00     0.296 HD
ENDBRANCH   1  33
TORSDOF 2
