REMARK SMILES O=c1ccc2cc3ccoc3cc2o1
REMARK SMILES IDX 1 1 2 2 3 3 4 4 5 5 6 6 7 7 11 8 12 9 13 10 14 11 10 12 9 13
REMARK SMILES IDX 8 14
REMARK H PARENT
ROOT
ATOM      1  O   UNL     1       4.643  -1.015   0.000  1.00  0.00    -0.246 OA
ATOM      2  C   UNL     1       3.287  -0.374   0.000  1.00  0.00     0.336 A 
ATOM      3  C   UNL     1       3.164   1.121   0.000  1.00  0.00     0.094 A 
ATOM      4  C   UNL     1       1.808   1.762   0.000  1.00  0.00     0.019 A 
ATOM      5  C   UNL     1       0.574   0.907   0.000  1.00  0.00     0.018 A 
ATOM      6  C   UNL     1      -0.782   1.548   0.000  1.00  0.00     0.024 A 
ATOM      7  C   UNL     1      -2.015   0.694   0.000  1.00  0.00     0.021 A 
ATOM      8  C   UNL     1      -1.892  -0.801   0.000  1.00  0.00     0.137 A 
ATOM      9  C   UNL     1      -0.535  -1.442   0.000  1.00  0.00     0.095 A 
ATOM     10  C   UNL     1       0.698  -0.588   0.000  1.00  0.00     0.142 A 
ATOM     11  O   UNL     1       2.054  -1.228   0.000  1.00  0.00    -0.423 OA
ATOM     12  O   UNL     1      -3.275  -1.380   0.000  1.00  0.00    -0.464 OA
ATOM     13  C   UNL     1      -4.254  -0.243   0.000  1.00  0.00     0.196 A 
ATOM     14  C   UNL     1      -3.475   1.039   0.000  1.00  0.00     0.050 A 
ENDROOT
TORSDOF 0
