REMARK SMILES CC[C@H](C)/C=C/C1=CC2=C(Cl)C(=O)[C@@]3(C)O[C@]4(O)[C@H](C)[C@@H](C)OC(=O)[C@@H]4[C@H]3C2=CO1
REMARK SMILES IDX 5 1 3 2 4 3 2 4 1 5 6 6 7 7 8 8 30 9 9 10 29 11 10 12 28 13
REMARK SMILES IDX 12 14 27 15 14 16 26 17 16 18 24 19 17 20 23 21 19 22 21 23
REMARK SMILES IDX 11 24 13 25 15 26 25 27 20 28 22 29 18 30
REMARK H PARENT 18 31
ROOT
ATOM      1  C   UNL     1      -5.383  -1.251   0.000  1.00  0.00    -0.020 C 
ENDROOT
BRANCH   1   2
ATOM      2  C   UNL     1      -6.882  -1.301   0.000  1.00  0.00     0.008 C 
ATOM      3  C   UNL     1      -7.588  -2.624   0.000  1.00  0.00     0.012 C 
BRANCH   2   4
ATOM      4  C   UNL     1      -7.675  -0.028   0.000  1.00  0.00     0.004 C 
ATOM      5  C   UNL     1      -9.174  -0.078   0.000  1.00  0.00     0.004 C 
ENDBRANCH   2   4
ENDBRANCH   1   2
BRANCH   1   6
ATOM      6  C   UNL     1      -4.677   0.073   0.000  1.00  0.00     0.043 C 
BRANCH   6   7
ATOM      7  C   UNL     1      -3.178   0.123   0.000  1.00  0.00     0.126 C 
ATOM      8  C   UNL     1      -2.472   1.447   0.000  1.00  0.00     0.057 C 
ATOM      9  O   UNL     1      -2.385  -1.150   0.000  1.00  0.00    -0.465 OA
ATOM     10  C   UNL     1      -0.973   1.497   0.000  1.00  0.00     0.007 C 
ATOM     11  C   UNL     1      -0.885  -1.100   0.000  1.00  0.00     0.200 C 
ATOM     12  C   UNL     1      -0.267   2.821   0.000  1.00  0.00     0.094 C 
ATOM     13  C   UNL     1      -0.179   0.224   0.000  1.00  0.00     0.004 C 
ATOM     14  C   UNL     1       1.232   2.871   0.000  1.00  0.00     0.207 C 
ATOM     15  C   UNL     1       1.320   0.274   0.000  1.00  0.00     0.083 C 
ATOM     16  C   UNL     1       2.026   1.598   0.000  1.00  0.00     0.140 C 
ATOM     17  C   UNL     1       2.360  -0.806   0.000  1.00  0.00     0.170 C 
ATOM     18  O   UNL     1       3.503   1.335   0.000  1.00  0.00    -0.334 OA
ATOM     19  C   UNL     1       2.254  -2.302   0.000  1.00  0.00     0.315 C 
ATOM     20  C   UNL     1       3.709  -0.150   0.000  1.00  0.00     0.187 C 
ATOM     21  O   UNL     1       3.496  -3.143   0.000  1.00  0.00    -0.462 OA
ATOM     22  C   UNL     1       4.952  -0.991   0.000  1.00  0.00     0.087 C 
ATOM     23  C   UNL     1       4.845  -2.487   0.000  1.00  0.00     0.181 C 
ATOM     24  Cl  UNL     1      -1.060   4.094   0.000  1.00  0.00    -0.080 Cl
ATOM     25  O   UNL     1       1.938   4.194   0.000  1.00  0.00    -0.290 OA
ATOM     26  C   UNL     1       2.866   2.840   0.000  1.00  0.00     0.052 C 
ATOM     27  O   UNL     1       0.905  -2.958   0.000  1.00  0.00    -0.252 OA
ATOM     28  C   UNL     1       6.301  -0.335   0.000  1.00  0.00     0.017 C 
ATOM     29  C   UNL     1       6.088  -3.328   0.000  1.00  0.00     0.053 C 
BRANCH  20  30
ATOM     30  O   UNL     1       4.982   0.643   0.000  1.00  0.00    -0.364 OA
ATOM     31  H   UNL     1       0.000   0.000   0.000  1.00  0.00     0.214 HD
ENDBRANCH  20  30
ENDBRANCH   6   7
ENDBRANCH   1   6
TORSDOF 5
