REMARK SMILES C=CC[C@@]12C[C@H](OC)C(=O)C(OC)=C1O[C@H](C)[C@H]2c1cc(OC)c(OC)c(OC)c1
REMARK SMILES IDX 4 1 5 2 6 3 9 4 10 5 11 6 14 7 15 8 16 9 17 10 18 11 3 12
REMARK SMILES IDX 2 13 1 14 19 15 20 16 30 17 21 18 27 19 24 20 22 21 23 22
REMARK SMILES IDX 28 23 29 24 25 25 26 26 7 27 8 28 12 29 13 30
REMARK H PARENT
ROOT
ATOM      1  C   UNL     1       1.337  -0.554   0.000  1.00  0.00     0.048 C 
ATOM      2  C   UNL     1       1.683   0.906   0.000  1.00  0.00     0.057 C 
ATOM      3  C   UNL     1       3.120   1.336   0.000  1.00  0.00     0.194 C 
ATOM      4  C   UNL     1       4.211   0.307   0.000  1.00  0.00     0.229 C 
ATOM      5  O   UNL     1       5.648   0.737   0.000  1.00  0.00    -0.288 OA
ATOM      6  C   UNL     1       3.865  -1.153   0.000  1.00  0.00     0.203 C 
ATOM      7  C   UNL     1       2.428  -1.583   0.000  1.00  0.00     0.149 C 
ATOM      8  O   UNL     1       1.786  -2.939   0.000  1.00  0.00    -0.490 OA
ATOM      9  C   UNL     1       0.299  -2.747   0.000  1.00  0.00     0.178 C 
ATOM     10  C   UNL     1      -0.731  -3.838   0.000  1.00  0.00     0.053 C 
ATOM     11  C   UNL     1       0.021  -1.273   0.000  1.00  0.00     0.074 C 
ENDROOT
BRANCH   1  12
ATOM     12  C   UNL     1       0.144   0.356   0.000  1.00  0.00     0.042 C 
BRANCH  12  13
ATOM     13  C   UNL     1       0.336   1.844   0.000  1.00  0.00    -0.034 C 
ATOM     14  C   UNL     1      -0.857   2.753   0.000  1.00  0.00     0.004 C 
ENDBRANCH  12  13
ENDBRANCH   1  12
BRANCH  11  15
ATOM     15  C   UNL     1      -1.335  -0.632   0.000  1.00  0.00    -0.033 A 
ATOM     16  C   UNL     1      -1.457   0.863   0.000  1.00  0.00     0.055 A 
ATOM     17  C   UNL     1      -2.568  -1.485   0.000  1.00  0.00     0.055 A 
ATOM     18  C   UNL     1      -2.813   1.505   0.000  1.00  0.00     0.164 A 
ATOM     19  C   UNL     1      -3.924  -0.843   0.000  1.00  0.00     0.164 A 
ATOM     20  C   UNL     1      -4.046   0.652   0.000  1.00  0.00     0.203 A 
BRANCH  18  21
ATOM     21  O   UNL     1      -2.935   3.000   0.000  1.00  0.00    -0.493 OA
ATOM     22  C   UNL     1      -1.701   3.853   0.000  1.00  0.00     0.278 C 
ENDBRANCH  18  21
BRANCH  19  23
ATOM     23  O   UNL     1      -5.158  -1.696   0.000  1.00  0.00    -0.493 OA
ATOM     24  C   UNL     1      -5.036  -3.191   0.000  1.00  0.00     0.278 C 
ENDBRANCH  19  23
BRANCH  20  25
ATOM     25  O   UNL     1      -5.402   1.294   0.000  1.00  0.00    -0.490 OA
ATOM     26  C   UNL     1      -6.636   0.441   0.000  1.00  0.00     0.278 C 
ENDBRANCH  20  25
ENDBRANCH  11  15
BRANCH   3  27
ATOM     27  O   UNL     1       3.466   2.796   0.000  1.00  0.00    -0.373 OA
ATOM     28  C   UNL     1       4.903   3.226   0.000  1.00  0.00     0.196 C 
ENDBRANCH   3  27
BRANCH   6  29
ATOM     29  O   UNL     1       4.956  -2.182   0.000  1.00  0.00    -0.490 OA
ATOM     30  C   UNL     1       6.393  -1.752   0.000  1.00  0.00     0.278 C 
ENDBRANCH   6  29
TORSDOF 8
