REMARK SMILES O=C1C[C@H](c2ccc(O)c(O)c2)Oc2cc(O)cc(O)c21
REMARK SMILES IDX 1 1 2 2 3 3 4 4 13 5 14 6 15 7 16 8 18 9 19 10 21 11 5 12
REMARK SMILES IDX 6 13 12 14 7 15 10 16 8 17 11 18 9 20 20 22 17 24
REMARK H PARENT 11 19 9 21 20 23 17 25
ROOT
ATOM      1  O   UNL     1       1.907  -3.191   0.000  1.00  0.00    -0.294 OA
ATOM      2  C   UNL     1       1.410  -1.776   0.000  1.00  0.00     0.174 C 
ATOM      3  C   UNL     1      -0.064  -1.499   0.000  1.00  0.00     0.131 C 
ATOM      4  C   UNL     1      -0.561  -0.083   0.000  1.00  0.00     0.211 C 
ATOM      5  O   UNL     1       0.416   1.055   0.000  1.00  0.00    -0.484 OA
ATOM      6  C   UNL     1       1.891   0.777   0.000  1.00  0.00     0.138 A 
ATOM      7  C   UNL     1       2.868   1.915   0.000  1.00  0.00     0.093 A 
ATOM      8  C   UNL     1       4.342   1.638   0.000  1.00  0.00     0.123 A 
ATOM      9  C   UNL     1       4.839   0.223   0.000  1.00  0.00     0.093 A 
ATOM     10  C   UNL     1       3.862  -0.915   0.000  1.00  0.00     0.133 A 
ATOM     11  C   UNL     1       2.388  -0.638   0.000  1.00  0.00     0.102 A 
ENDROOT
BRANCH   4  12
ATOM     12  C   UNL     1      -2.035   0.194   0.000  1.00  0.00    -0.003 A 
ATOM     13  C   UNL     1      -2.532   1.609   0.000  1.00  0.00     0.011 A 
ATOM     14  C   UNL     1      -3.012  -0.944   0.000  1.00  0.00     0.057 A 
ATOM     15  C   UNL     1      -4.006   1.887   0.000  1.00  0.00     0.050 A 
ATOM     16  C   UNL     1      -4.486  -0.667   0.000  1.00  0.00     0.157 A 
ATOM     17  C   UNL     1      -4.983   0.749   0.000  1.00  0.00     0.157 A 
BRANCH  16  18
ATOM     18  O   UNL     1      -5.464  -1.804   0.000  1.00  0.00    -0.504 OA
ATOM     19  H   UNL     1       0.000   0.000   0.000  1.00  0.00     0.293 HD
ENDBRANCH  16  18
BRANCH  17  20
ATOM     20  O   UNL     1      -6.457   1.026   0.000  1.00  0.00    -0.504 OA
ATOM     21  H   UNL     1       0.000   0.000   0.000  1.00  0.00     0.293 HD
ENDBRANCH  17  20
ENDBRANCH   4  12
BRANCH  10  22
ATOM     22  O   UNL     1       4.359  -2.331   0.000  1.00  0.00    -0.507 OA
ATOM     23  H   UNL     1       0.000   0.000   0.000  1.00  0.00     0.293 HD
ENDBRANCH  10  22
BRANCH   8  24
ATOM     24  O   UNL     1       5.319   2.776   0.000  1.00  0.00    -0.508 OA
ATOM     25  H   UNL     1       0.000   0.000   0.000  1.00  0.00     0.293 HD
ENDBRANCH   8  24
TORSDOF 5
