REMARK SMILES C=C1CC[C@H]2[C@@H]1[C@H]1[C@@H](CC[C@H]2C)C1(C)C
REMARK SMILES IDX 1 1 2 2 3 3 4 4 5 5 6 6 7 7 8 8 13 9 14 10 15 11 9 12 11 14
REMARK SMILES IDX 12 15 10 16
REMARK H PARENT
REMARK Flexibility Score:    5.900
ROOT
ATOM      1  C   UNL     1      -0.327  -3.315   0.000  1.00  0.00     0.008 C 
ATOM      2  C   UNL     1       0.656  -2.181   0.000  1.00  0.00    -0.074 C 
ATOM      3  C   UNL     1       2.150  -2.309   0.000  1.00  0.00     0.031 C 
ATOM      4  C   UNL     1       2.734  -0.928   0.000  1.00  0.00     0.009 C 
ATOM      5  C   UNL     1       1.600   0.054   0.000  1.00  0.00    -0.000 C 
ATOM      6  C   UNL     1       0.316  -0.720   0.000  1.00  0.00     0.022 C 
ENDROOT
BRANCH   6   7
ATOM      7  C   UNL     1      -1.091  -0.199   0.000  1.00  0.00     0.006 C 
ATOM      8  C   UNL     1      -1.560   1.226   0.000  1.00  0.00    -0.001 C 
ATOM      9  C   UNL     1      -2.559   0.107   0.000  1.00  0.00    -0.029 C 
ATOM     10  C   UNL     1      -3.835   0.896   0.000  1.00  0.00     0.012 C 
ATOM     11  C   UNL     1      -3.115  -1.286   0.000  1.00  0.00     0.012 C 
BRANCH   8  12
ATOM     12  C   UNL     1      -0.739   2.481   0.000  1.00  0.00     0.005 CG0
ATOM     13  G   UNL     1       0.754   2.622   0.000  1.00  0.00     0.000 G0
ENDBRANCH   8  12
ENDBRANCH   6   7
BRANCH   5  14
ATOM     14  C   UNL     1       1.795   1.542   0.000  1.00  0.00    -0.011 C 
ATOM     15  C   UNL     1       3.220   2.011   0.000  1.00  0.00     0.008 C 
BRANCH  14  16
ATOM     16  C   UNL     1       0.754   2.622   0.000  1.00  0.00     0.004 CG0
ATOM     17  G   UNL     1      -0.739   2.481   0.000  1.00  0.00     0.000 G0
ENDBRANCH  14  16
ENDBRANCH   5  14
TORSDOF 0
