REMARK SMILES COc1cc(OC)c2c(=O)c(OC)c(-c3cc(O)c(OC)cc3O)oc2c1
REMARK SMILES IDX 3 1 4 2 5 3 8 4 9 5 10 6 11 7 14 8 25 9 26 10 27 11 2 12
REMARK SMILES IDX 1 13 6 14 7 15 15 16 16 17 23 18 17 19 22 20 19 21 24 22
REMARK SMILES IDX 18 24 20 26 21 27 12 28 13 29
REMARK H PARENT 24 23 18 25
ROOT
ATOM      1  C   UNL     1      -4.265  -1.776   0.000  1.00  0.00     0.126 A 
ATOM      2  C   UNL     1      -4.808  -0.377   0.000  1.00  0.00     0.093 A 
ATOM      3  C   UNL     1      -3.869   0.792   0.000  1.00  0.00     0.137 A 
ATOM      4  C   UNL     1      -2.386   0.563   0.000  1.00  0.00     0.111 A 
ATOM      5  C   UNL     1      -1.447   1.733   0.000  1.00  0.00     0.239 A 
ATOM      6  O   UNL     1      -1.990   3.131   0.000  1.00  0.00    -0.285 OA
ATOM      7  C   UNL     1       0.035   1.504   0.000  1.00  0.00     0.211 A 
ATOM      8  C   UNL     1       0.578   0.105   0.000  1.00  0.00     0.184 A 
ATOM      9  O   UNL     1      -0.361  -1.064   0.000  1.00  0.00    -0.451 OA
ATOM     10  C   UNL     1      -1.843  -0.835   0.000  1.00  0.00     0.146 A 
ATOM     11  C   UNL     1      -2.783  -2.005   0.000  1.00  0.00     0.094 A 
ENDROOT
BRANCH   1  12
ATOM     12  O   UNL     1      -5.205  -2.945   0.000  1.00  0.00    -0.496 OA
ATOM     13  C   UNL     1      -6.687  -2.716   0.000  1.00  0.00     0.278 C 
ENDBRANCH   1  12
BRANCH   3  14
ATOM     14  O   UNL     1      -4.412   2.190   0.000  1.00  0.00    -0.496 OA
ATOM     15  C   UNL     1      -5.894   2.419   0.000  1.00  0.00     0.278 C 
ENDBRANCH   3  14
BRANCH   8  16
ATOM     16  C   UNL     1       2.061  -0.123   0.000  1.00  0.00     0.067 A 
ATOM     17  C   UNL     1       3.000   1.046   0.000  1.00  0.00     0.066 A 
ATOM     18  C   UNL     1       2.604  -1.522   0.000  1.00  0.00     0.130 A 
ATOM     19  C   UNL     1       4.483   0.817   0.000  1.00  0.00     0.158 A 
ATOM     20  C   UNL     1       4.086  -1.750   0.000  1.00  0.00     0.097 A 
ATOM     21  C   UNL     1       5.026  -0.581   0.000  1.00  0.00     0.164 A 
BRANCH  18  22
ATOM     22  O   UNL     1       1.665  -2.691   0.000  1.00  0.00    -0.507 OA
ATOM     23  H   UNL     1       0.000   0.000   0.000  1.00  0.00     0.293 HD
ENDBRANCH  18  22
BRANCH  19  24
ATOM     24  O   UNL     1       5.422   1.986   0.000  1.00  0.00    -0.504 OA
ATOM     25  H   UNL     1       0.000   0.000   0.000  1.00  0.00     0.293 HD
ENDBRANCH  19  24
BRANCH  21  26
ATOM     26  O   UNL     1       6.508  -0.810   0.000  1.00  0.00    -0.493 OA
ATOM     27  C   UNL     1       7.051  -2.208   0.000  1.00  0.00     0.278 C 
ENDBRANCH  21  26
ENDBRANCH   8  16
BRANCH   7  28
ATOM     28  O   UNL     1       0.975   2.673   0.000  1.00  0.00    -0.490 OA
ATOM     29  C   UNL     1       2.457   2.444   0.000  1.00  0.00     0.278 C 
ENDBRANCH   7  28
TORSDOF 7
