REMARK SMILES COC1=CC(=O)O[C@@H](CCc2ccc(OC)cc2)C1
REMARK SMILES IDX 9 1 8 2 3 3 4 4 19 5 5 6 7 7 6 8 2 9 1 10 10 11 11 12 12 13
REMARK SMILES IDX 18 14 13 15 17 16 14 17 15 18 16 19
REMARK H PARENT
ROOT
ATOM      1  C   UNL     1      -0.343   0.782   0.000  1.00  0.00     0.050 C 
ENDROOT
BRANCH   1   2
ATOM      2  C   UNL     1      -1.830   0.584   0.000  1.00  0.00     0.184 C 
ATOM      3  C   UNL     1      -3.889  -1.002   0.000  1.00  0.00     0.106 C 
ATOM      4  C   UNL     1      -4.804   0.187   0.000  1.00  0.00     0.135 C 
ATOM      5  C   UNL     1      -2.402  -0.803   0.000  1.00  0.00     0.120 C 
ATOM      6  C   UNL     1      -4.232   1.574   0.000  1.00  0.00     0.334 C 
ATOM      7  O   UNL     1      -2.745   1.772   0.000  1.00  0.00    -0.459 OA
ATOM      8  O   UNL     1      -5.147   2.762   0.000  1.00  0.00    -0.247 OA
BRANCH   3   9
ATOM      9  O   UNL     1      -4.460  -2.388   0.000  1.00  0.00    -0.501 OA
ATOM     10  C   UNL     1      -5.947  -2.587   0.000  1.00  0.00     0.278 C 
ENDBRANCH   3   9
ENDBRANCH   1   2
BRANCH   1  11
ATOM     11  C   UNL     1       0.572  -0.406   0.000  1.00  0.00     0.039 C 
BRANCH  11  12
ATOM     12  C   UNL     1       2.059  -0.208   0.000  1.00  0.00    -0.048 A 
ATOM     13  C   UNL     1       2.974  -1.397   0.000  1.00  0.00     0.007 A 
ATOM     14  C   UNL     1       2.630   1.179   0.000  1.00  0.00     0.007 A 
ATOM     15  C   UNL     1       4.461  -1.198   0.000  1.00  0.00     0.046 A 
ATOM     16  C   UNL     1       4.117   1.377   0.000  1.00  0.00     0.046 A 
ATOM     17  C   UNL     1       5.032   0.188   0.000  1.00  0.00     0.118 A 
BRANCH  17  18
ATOM     18  O   UNL     1       6.519   0.387   0.000  1.00  0.00    -0.497 OA
ATOM     19  C   UNL     1       7.434  -0.802   0.000  1.00  0.00     0.278 C 
ENDBRANCH  17  18
ENDBRANCH  11  12
ENDBRANCH   1  11
TORSDOF 5
