REMARK SMILES C[C@@H]1C[C@@H]2[C@H](CC[C@]3(C)O[C@H]3C3=C(C[C@](C)(O)C3=O)C1=O)C2(C)C
REMARK SMILES IDX 8 1 9 2 10 3 11 4 12 5 13 6 14 7 18 8 15 9 19 10 16 11 20 12
REMARK SMILES IDX 21 13 2 14 1 15 3 16 17 18 7 20 6 21 5 22 4 23 22 24 23 25
REMARK SMILES IDX 24 26
REMARK H PARENT 17 19
REMARK Flexibility Score:   26.900
ROOT
ATOM      1  C   UNL     1       0.019  -2.718   0.000  1.00  0.00     0.097 C 
ATOM      2  C   UNL     1       0.323  -4.187   0.000  1.00  0.00     0.045 C 
ATOM      3  O   UNL     1      -1.336  -3.360   0.000  1.00  0.00    -0.361 OA
ATOM      4  C   UNL     1      -1.214  -1.865   0.000  1.00  0.00     0.185 C 
ENDROOT
BRANCH   4   5
ATOM      5  C   UNL     1      -1.791  -0.480   0.000  1.00  0.00     0.037 C 
ATOM      6  C   UNL     1      -1.527   0.997   0.000  1.00  0.00     0.008 C 
ATOM      7  C   UNL     1      -2.850   1.704   0.000  1.00  0.00     0.083 C 
ATOM      8  C   UNL     1      -3.276  -0.685   0.000  1.00  0.00     0.193 C 
ATOM      9  C   UNL     1      -3.931   0.664   0.000  1.00  0.00     0.128 C 
ATOM     10  O   UNL     1      -3.984  -2.008   0.000  1.00  0.00    -0.291 OA
ATOM     11  C   UNL     1      -4.852   1.848   0.000  1.00  0.00     0.051 C 
BRANCH   6  12
ATOM     12  C   UNL     1      -0.507   2.096   0.000  1.00  0.00     0.162 C 
ATOM     13  O   UNL     1      -1.274   3.385   0.000  1.00  0.00    -0.294 OA
BRANCH  12  14
ATOM     14  C   UNL     1       0.946   2.470   0.000  1.00  0.00     0.058 C 
ATOM     15  C   UNL     1       0.997   3.969   0.000  1.00  0.00     0.016 C 
BRANCH  14  16
ATOM     16  C   UNL     1       2.370   1.999   0.000  1.00  0.00     0.016 CG0
ATOM     17  G   UNL     1       3.313   0.833   0.000  1.00  0.00     0.000 G0
ENDBRANCH  14  16
ENDBRANCH  12  14
ENDBRANCH   6  12
BRANCH   9  18
ATOM     18  O   UNL     1      -5.205  -0.128   0.000  1.00  0.00    -0.382 OA
ATOM     19  H   UNL     1       0.000   0.000   0.000  1.00  0.00     0.212 HD
ENDBRANCH   9  18
ENDBRANCH   4   5
BRANCH   1  20
ATOM     20  C   UNL     1       1.519  -2.769   0.000  1.00  0.00     0.039 C 
BRANCH  20  21
ATOM     21  C   UNL     1       2.807  -2.001   0.000  1.00  0.00     0.007 C 
BRANCH  21  22
ATOM     22  C   UNL     1       3.476  -0.659   0.000  1.00  0.00    -0.001 C 
ATOM     23  C   UNL     1       3.313   0.833   0.000  1.00  0.00    -0.001 CG0
ATOM     24  C   UNL     1       4.686   0.228   0.000  1.00  0.00    -0.029 C 
ATOM     25  C   UNL     1       5.769  -0.809   0.000  1.00  0.00     0.011 C 
ATOM     26  C   UNL     1       5.520   1.475   0.000  1.00  0.00     0.011 C 
ATOM     27  G   UNL     1       2.370   1.999   0.000  1.00  0.00     0.000 G0
ENDBRANCH  21  22
ENDBRANCH  20  21
ENDBRANCH   1  20
TORSDOF 1
