REMARK SMILES C[C@@H]1CC[C@]2(C(=O)O)CC[C@]3(C)C(=CCC4[C@@]5(C)C[C@@H](O)[C@H](O)[C@@](C)(CO)C5[C@H](O)C[C@]43C)C2[C@H]1C
REMARK SMILES IDX 1 1 2 2 3 3 4 4 5 5 9 6 10 7 11 8 12 9 13 10 14 11 15 12
REMARK SMILES IDX 16 13 17 14 18 15 19 16 20 17 22 18 24 19 25 20 28 21 29 22
REMARK SMILES IDX 31 23 32 24 33 25 34 26 35 27 36 28 6 29 7 30 8 31 30 33
REMARK SMILES IDX 26 35 27 36 21 38 23 40
REMARK H PARENT 8 32 30 34 27 37 21 39 23 41
ROOT
ATOM      1  C   UNL     1      -6.514  -3.078   0.000  1.00  0.00     0.008 C 
ATOM      2  C   UNL     1      -5.723  -1.804   0.000  1.00  0.00    -0.011 C 
ATOM      3  C   UNL     1      -6.431  -0.481   0.000  1.00  0.00     0.005 C 
ATOM      4  C   UNL     1      -5.639   0.793   0.000  1.00  0.00     0.020 C 
ATOM      5  C   UNL     1      -4.140   0.745   0.000  1.00  0.00     0.075 C 
ATOM      6  C   UNL     1      -3.348   2.019   0.000  1.00  0.00     0.020 C 
ATOM      7  C   UNL     1      -1.849   1.971   0.000  1.00  0.00     0.013 C 
ATOM      8  C   UNL     1      -1.141   0.648   0.000  1.00  0.00    -0.006 C 
ATOM      9  C   UNL     1      -0.434  -0.674   0.000  1.00  0.00     0.017 C 
ATOM     10  C   UNL     1      -1.933  -0.626   0.000  1.00  0.00    -0.063 C 
ATOM     11  C   UNL     1      -1.225  -1.948   0.000  1.00  0.00    -0.027 C 
ATOM     12  C   UNL     1       0.274  -1.997   0.000  1.00  0.00     0.032 C 
ATOM     13  C   UNL     1       1.066  -0.723   0.000  1.00  0.00     0.006 C 
ATOM     14  C   UNL     1       2.565  -0.771   0.000  1.00  0.00    -0.020 C 
ATOM     15  C   UNL     1       1.774  -2.045   0.000  1.00  0.00     0.012 C 
ATOM     16  C   UNL     1       3.273  -2.093   0.000  1.00  0.00     0.042 C 
ATOM     17  C   UNL     1       4.772  -2.142   0.000  1.00  0.00     0.144 C 
ATOM     18  C   UNL     1       5.563  -0.867   0.000  1.00  0.00     0.151 C 
ATOM     19  C   UNL     1       4.856   0.455   0.000  1.00  0.00     0.025 C 
ATOM     20  C   UNL     1       4.643   1.940   0.000  1.00  0.00     0.017 C 
ATOM     21  C   UNL     1       3.356   0.503   0.000  1.00  0.00     0.035 C 
ATOM     22  C   UNL     1       2.648   1.826   0.000  1.00  0.00     0.119 C 
ATOM     23  C   UNL     1       1.149   1.874   0.000  1.00  0.00     0.040 C 
ATOM     24  C   UNL     1       0.358   0.600   0.000  1.00  0.00    -0.017 C 
ATOM     25  C   UNL     1      -0.350   1.922   0.000  1.00  0.00     0.013 C 
ATOM     26  C   UNL     1      -3.432  -0.578   0.000  1.00  0.00     0.036 C 
ATOM     27  C   UNL     1      -4.223  -1.852   0.000  1.00  0.00    -0.003 C 
ATOM     28  C   UNL     1      -3.516  -3.175   0.000  1.00  0.00     0.008 C 
ENDROOT
BRANCH   5  29
ATOM     29  C   UNL     1      -4.848   2.067   0.000  1.00  0.00     0.310 C 
ATOM     30  O   UNL     1      -6.347   2.115   0.000  1.00  0.00    -0.252 OA
BRANCH  29  31
ATOM     31  O   UNL     1      -4.056   3.341   0.000  1.00  0.00    -0.481 OA
ATOM     32  H   UNL     1       0.000   0.000   0.000  1.00  0.00     0.296 HD
ENDBRANCH  29  31
ENDBRANCH   5  29
BRANCH  22  33
ATOM     33  O   UNL     1       3.440   3.100   0.000  1.00  0.00    -0.393 OA
ATOM     34  H   UNL     1       0.000   0.000   0.000  1.00  0.00     0.210 HD
ENDBRANCH  22  33
BRANCH  19  35
ATOM     35  C   UNL     1       6.281   0.922   0.000  1.00  0.00     0.166 C 
BRANCH  35  36
ATOM     36  O   UNL     1       6.589   2.391   0.000  1.00  0.00    -0.396 OA
ATOM     37  H   UNL     1       0.000   0.000   0.000  1.00  0.00     0.210 HD
ENDBRANCH  35  36
ENDBRANCH  19  35
BRANCH  17  38
ATOM     38  O   UNL     1       5.480  -3.464   0.000  1.00  0.00    -0.390 OA
ATOM     39  H   UNL     1       0.000   0.000   0.000  1.00  0.00     0.211 HD
ENDBRANCH  17  38
BRANCH  18  40
ATOM     40  O   UNL     1       7.063  -0.916   0.000  1.00  0.00    -0.390 OA
ATOM     41  H   UNL     1       0.000   0.000   0.000  1.00  0.00     0.211 HD
ENDBRANCH  18  40
TORSDOF 7
