REMARK SMILES COc1cc2c(c(OC)c1OC)c(=O)c1ccccc1n2C
REMARK SMILES IDX 3 1 4 2 5 3 6 4 7 5 10 6 13 7 14 8 15 9 16 10 17 11 18 12
REMARK SMILES IDX 19 13 20 14 21 15 22 16 2 17 1 18 11 19 12 20 8 21 9 22
REMARK H PARENT
ROOT
ATOM      1  C   UNL     1      -2.553   1.070   0.000  1.00  0.00     0.166 A 
ATOM      2  C   UNL     1      -1.222   1.761   0.000  1.00  0.00     0.077 A 
ATOM      3  C   UNL     1       0.043   0.954   0.000  1.00  0.00     0.060 A 
ATOM      4  C   UNL     1      -0.024  -0.545   0.000  1.00  0.00     0.092 A 
ATOM      5  C   UNL     1      -1.356  -1.236   0.000  1.00  0.00     0.177 A 
ATOM      6  C   UNL     1      -2.620  -0.429   0.000  1.00  0.00     0.204 A 
ATOM      7  C   UNL     1       1.240  -1.352   0.000  1.00  0.00     0.201 A 
ATOM      8  O   UNL     1       1.173  -2.851   0.000  1.00  0.00    -0.288 OA
ATOM      9  C   UNL     1       2.571  -0.661   0.000  1.00  0.00     0.046 A 
ATOM     10  C   UNL     1       3.835  -1.468   0.000  1.00  0.00     0.014 A 
ATOM     11  C   UNL     1       5.167  -0.777   0.000  1.00  0.00     0.001 A 
ATOM     12  C   UNL     1       5.234   0.721   0.000  1.00  0.00     0.002 A 
ATOM     13  C   UNL     1       3.970   1.528   0.000  1.00  0.00     0.027 A 
ATOM     14  C   UNL     1       2.638   0.837   0.000  1.00  0.00     0.052 A 
ATOM     15  N   UNL     1       1.374   1.645   0.000  1.00  0.00    -0.343 N 
ATOM     16  C   UNL     1       1.441   3.143   0.000  1.00  0.00     0.150 C 
ENDROOT
BRANCH   1  17
ATOM     17  O   UNL     1      -3.817   1.877   0.000  1.00  0.00    -0.493 OA
ATOM     18  C   UNL     1      -3.750   3.376   0.000  1.00  0.00     0.278 C 
ENDBRANCH   1  17
BRANCH   6  19
ATOM     19  O   UNL     1      -3.951  -1.120   0.000  1.00  0.00    -0.490 OA
ATOM     20  C   UNL     1      -5.215  -0.312   0.000  1.00  0.00     0.278 C 
ENDBRANCH   6  19
BRANCH   5  21
ATOM     21  O   UNL     1      -1.423  -2.735   0.000  1.00  0.00    -0.492 OA
ATOM     22  C   UNL     1      -2.754  -3.426   0.000  1.00  0.00     0.278 C 
ENDBRANCH   5  21
TORSDOF 3
