REMARK SMILES Oc1cc(O)c2c(c1)O[C@H](c1cc(O)c(O)c(O)c1)[C@H](O)C2
REMARK SMILES IDX 2 1 3 2 4 3 6 4 22 5 20 6 10 7 9 8 7 9 8 10 1 11 5 13 11 15
REMARK SMILES IDX 12 16 19 17 13 18 17 19 15 20 14 21 18 23 16 25 21 27
REMARK H PARENT 1 12 5 14 14 22 18 24 16 26 21 28
ROOT
ATOM      1  C   UNL     1      -4.651  -1.555   0.000  1.00  0.00     0.122 A 
ATOM      2  C   UNL     1      -5.176  -0.150   0.000  1.00  0.00     0.092 A 
ATOM      3  C   UNL     1      -4.221   1.007   0.000  1.00  0.00     0.126 A 
ATOM      4  C   UNL     1      -2.742   0.759   0.000  1.00  0.00     0.039 A 
ATOM      5  C   UNL     1      -1.787   1.916   0.000  1.00  0.00     0.079 C 
ATOM      6  C   UNL     1      -0.308   1.668   0.000  1.00  0.00     0.164 C 
ATOM      7  C   UNL     1       0.217   0.263   0.000  1.00  0.00     0.233 C 
ATOM      8  O   UNL     1      -0.738  -0.894   0.000  1.00  0.00    -0.482 OA
ATOM      9  C   UNL     1      -2.217  -0.646   0.000  1.00  0.00     0.131 A 
ATOM     10  C   UNL     1      -3.171  -1.803   0.000  1.00  0.00     0.093 A 
ENDROOT
BRANCH   1  11
ATOM     11  O   UNL     1      -5.605  -2.712   0.000  1.00  0.00    -0.508 OA
ATOM     12  H   UNL     1       0.000   0.000   0.000  1.00  0.00     0.293 HD
ENDBRANCH   1  11
BRANCH   3  13
ATOM     13  O   UNL     1      -4.746   2.412   0.000  1.00  0.00    -0.507 OA
ATOM     14  H   UNL     1       0.000   0.000   0.000  1.00  0.00     0.293 HD
ENDBRANCH   3  13
BRANCH   7  15
ATOM     15  C   UNL     1       1.696   0.015   0.000  1.00  0.00     0.003 A 
ATOM     16  C   UNL     1       2.221  -1.390   0.000  1.00  0.00     0.058 A 
ATOM     17  C   UNL     1       2.651   1.172   0.000  1.00  0.00     0.058 A 
ATOM     18  C   UNL     1       3.700  -1.638   0.000  1.00  0.00     0.161 A 
ATOM     19  C   UNL     1       4.130   0.924   0.000  1.00  0.00     0.161 A 
ATOM     20  C   UNL     1       4.655  -0.481   0.000  1.00  0.00     0.200 A 
BRANCH  18  21
ATOM     21  O   UNL     1       4.225  -3.043   0.000  1.00  0.00    -0.504 OA
ATOM     22  H   UNL     1       0.000   0.000   0.000  1.00  0.00     0.293 HD
ENDBRANCH  18  21
BRANCH  19  23
ATOM     23  O   UNL     1       5.085   2.081   0.000  1.00  0.00    -0.504 OA
ATOM     24  H   UNL     1       0.000   0.000   0.000  1.00  0.00     0.293 HD
ENDBRANCH  19  23
BRANCH  20  25
ATOM     25  O   UNL     1       6.134  -0.729   0.000  1.00  0.00    -0.502 OA
ATOM     26  H   UNL     1       0.000   0.000   0.000  1.00  0.00     0.293 HD
ENDBRANCH  20  25
ENDBRANCH   7  15
BRANCH   6  27
ATOM     27  O   UNL     1       0.646   2.825   0.000  1.00  0.00    -0.389 OA
ATOM     28  H   UNL     1       0.000   0.000   0.000  1.00  0.00     0.211 HD
ENDBRANCH   6  27
TORSDOF 7
