REMARK SMILES C=C[C@@]1(C)CC[C@@H]2[C@@]3(C)CCC[C@@](C)(CO)[C@@H]3C[C@H](O)[C@@]2(O)C1
REMARK SMILES IDX 3 1 4 2 5 3 6 4 7 5 8 6 9 7 10 8 11 9 12 10 13 11 14 12
REMARK SMILES IDX 17 13 18 14 19 15 21 16 23 17 2 18 1 19 22 20 20 22 15 24
REMARK SMILES IDX 16 25
REMARK H PARENT 22 21 20 23 16 26
ROOT
ATOM      1  C   UNL     1      -3.536  -0.182   0.000  1.00  0.00    -0.012 C 
ATOM      2  C   UNL     1      -4.414  -1.398   0.000  1.00  0.00     0.016 C 
ATOM      3  C   UNL     1      -3.127   1.261   0.000  1.00  0.00     0.011 C 
ATOM      4  C   UNL     1      -1.672   1.628   0.000  1.00  0.00     0.008 C 
ATOM      5  C   UNL     1      -0.627   0.552   0.000  1.00  0.00     0.030 C 
ATOM      6  C   UNL     1       0.827   0.918   0.000  1.00  0.00    -0.023 C 
ATOM      7  C   UNL     1      -0.217   1.995   0.000  1.00  0.00     0.012 C 
ATOM      8  C   UNL     1       1.237   2.361   0.000  1.00  0.00     0.007 C 
ATOM      9  C   UNL     1       2.691   2.728   0.000  1.00  0.00     0.001 C 
ATOM     10  C   UNL     1       3.736   1.652   0.000  1.00  0.00     0.009 C 
ATOM     11  C   UNL     1       3.327   0.209   0.000  1.00  0.00    -0.006 C 
ATOM     12  C   UNL     1       3.435  -1.287   0.000  1.00  0.00     0.014 C 
ATOM     13  C   UNL     1       1.872  -0.158   0.000  1.00  0.00     0.006 C 
ATOM     14  C   UNL     1       1.463  -1.601   0.000  1.00  0.00     0.039 C 
ATOM     15  C   UNL     1       0.008  -1.968   0.000  1.00  0.00     0.146 C 
ATOM     16  C   UNL     1      -1.037  -0.891   0.000  1.00  0.00     0.095 C 
ATOM     17  C   UNL     1      -2.491  -1.258   0.000  1.00  0.00     0.049 C 
ENDROOT
BRANCH   1  18
ATOM     18  C   UNL     1      -4.886   0.472   0.000  1.00  0.00    -0.028 C 
ATOM     19  C   UNL     1      -4.995   1.968   0.000  1.00  0.00     0.004 C 
ENDBRANCH   1  18
BRANCH  16  20
ATOM     20  O   UNL     1      -1.446  -2.334   0.000  1.00  0.00    -0.387 OA
ATOM     21  H   UNL     1       0.000   0.000   0.000  1.00  0.00     0.211 HD
ENDBRANCH  16  20
BRANCH  15  22
ATOM     22  O   UNL     1      -0.401  -3.411   0.000  1.00  0.00    -0.390 OA
ATOM     23  H   UNL     1       0.000   0.000   0.000  1.00  0.00     0.211 HD
ENDBRANCH  15  22
BRANCH  11  24
ATOM     24  C   UNL     1       4.819   0.056   0.000  1.00  0.00     0.163 C 
BRANCH  24  25
ATOM     25  O   UNL     1       5.433  -1.312   0.000  1.00  0.00    -0.396 OA
ATOM     26  H   UNL     1       0.000   0.000   0.000  1.00  0.00     0.210 HD
ENDBRANCH  24  25
ENDBRANCH  11  24
TORSDOF 5
