REMARK SMILES COc1cc(O)c2c(=O)cc(C)oc2c1OC
REMARK SMILES IDX 3 1 4 2 5 3 7 4 8 5 9 6 10 7 11 8 12 9 13 10 14 11 15 12
REMARK SMILES IDX 2 13 1 14 16 15 17 16 6 17
REMARK H PARENT 6 18
ROOT
ATOM      1  C   UNL     1      -2.192  -0.757   0.000  1.00  0.00     0.168 A 
ATOM      2  C   UNL     1      -1.493  -2.084   0.000  1.00  0.00     0.097 A 
ATOM      3  C   UNL     1       0.006  -2.141   0.000  1.00  0.00     0.134 A 
ATOM      4  C   UNL     1       0.805  -0.872   0.000  1.00  0.00     0.111 A 
ATOM      5  C   UNL     1       2.304  -0.930   0.000  1.00  0.00     0.196 A 
ATOM      6  O   UNL     1       3.004  -2.257   0.000  1.00  0.00    -0.289 OA
ATOM      7  C   UNL     1       3.104   0.339   0.000  1.00  0.00     0.095 A 
ATOM      8  C   UNL     1       2.404   1.666   0.000  1.00  0.00     0.105 A 
ATOM      9  C   UNL     1       3.204   2.936   0.000  1.00  0.00     0.088 C 
ATOM     10  O   UNL     1       0.905   1.724   0.000  1.00  0.00    -0.457 OA
ATOM     11  C   UNL     1       0.106   0.455   0.000  1.00  0.00     0.187 A 
ATOM     12  C   UNL     1      -1.393   0.512   0.000  1.00  0.00     0.205 A 
ENDROOT
BRANCH   1  13
ATOM     13  O   UNL     1      -3.691  -0.699   0.000  1.00  0.00    -0.493 OA
ATOM     14  C   UNL     1      -4.391   0.628   0.000  1.00  0.00     0.278 C 
ENDBRANCH   1  13
BRANCH  12  15
ATOM     15  O   UNL     1      -2.092   1.839   0.000  1.00  0.00    -0.490 OA
ATOM     16  C   UNL     1      -1.293   3.109   0.000  1.00  0.00     0.278 C 
ENDBRANCH  12  15
BRANCH   3  17
ATOM     17  O   UNL     1       0.705  -3.468   0.000  1.00  0.00    -0.507 OA
ATOM     18  H   UNL     1       0.000   0.000   0.000  1.00  0.00     0.293 HD
ENDBRANCH   3  17
TORSDOF 3
