REMARK SMILES C=C1C[C@]2(CC[C@@H]3C(C)(C)CCC[C@@]3(C)O)C[C@H]1CCC2=O
REMARK SMILES IDX 6 1 5 2 4 3 2 4 3 5 18 6 17 7 19 8 21 9 20 10 1 11 22 12
REMARK SMILES IDX 7 13 8 14 14 15 11 16 13 17 12 18 9 19 10 20 15 21 16 22
REMARK H PARENT 16 23
ROOT
ATOM      1  C   UNL     1       0.711  -0.655   0.000  1.00  0.00     0.008 C 
ENDROOT
BRANCH   1   2
ATOM      2  C   UNL     1      -0.458   0.285   0.000  1.00  0.00     0.015 C 
BRANCH   2   3
ATOM      3  C   UNL     1      -1.857  -0.258   0.000  1.00  0.00     0.033 C 
ATOM      4  C   UNL     1      -3.579   1.452   0.000  1.00  0.00    -0.073 C 
ATOM      5  C   UNL     1      -2.097   1.223   0.000  1.00  0.00     0.045 C 
ATOM      6  C   UNL     1      -4.424   0.139   0.000  1.00  0.00     0.016 C 
ATOM      7  C   UNL     1      -3.026   0.682   0.000  1.00  0.00     0.023 C 
ATOM      8  C   UNL     1      -4.654  -1.343   0.000  1.00  0.00     0.016 C 
ATOM      9  C   UNL     1      -2.086  -1.740   0.000  1.00  0.00     0.139 C 
ATOM     10  C   UNL     1      -3.484  -2.283   0.000  1.00  0.00     0.077 C 
ATOM     11  C   UNL     1      -4.265   2.786   0.000  1.00  0.00     0.008 C 
ATOM     12  O   UNL     1      -0.917  -2.680   0.000  1.00  0.00    -0.299 OA
ENDBRANCH   2   3
ENDBRANCH   1   2
BRANCH   1  13
ATOM     13  C   UNL     1       2.109  -0.112   0.000  1.00  0.00     0.026 C 
ATOM     14  C   UNL     1       3.278  -1.052   0.000  1.00  0.00    -0.030 C 
ATOM     15  C   UNL     1       2.338   1.370   0.000  1.00  0.00     0.065 C 
ATOM     16  C   UNL     1       4.677  -0.509   0.000  1.00  0.00     0.007 C 
ATOM     17  C   UNL     1       3.737   1.913   0.000  1.00  0.00     0.035 C 
ATOM     18  C   UNL     1       4.906   0.974   0.000  1.00  0.00     0.004 C 
ATOM     19  C   UNL     1       4.056  -2.334   0.000  1.00  0.00     0.011 C 
ATOM     20  C   UNL     1       2.150  -2.040   0.000  1.00  0.00     0.011 C 
ATOM     21  C   UNL     1       0.839   1.339   0.000  1.00  0.00     0.042 C 
BRANCH  15  22
ATOM     22  O   UNL     1       2.047   2.842   0.000  1.00  0.00    -0.390 OA
ATOM     23  H   UNL     1       0.000   0.000   0.000  1.00  0.00     0.211 HD
ENDBRANCH  15  22
ENDBRANCH   1  13
TORSDOF 4
