REMARK SMILES CC1(C)C(=O)CC[C@]2(C)[C@H]3CC[C@@H]4[C@@H]([C@]5(C)CCC(=O)O5)CC[C@@]4(C)[C@]3(C)CC[C@@H]12
REMARK SMILES IDX 1 1 2 2 3 3 4 4 5 5 6 6 7 7 8 8 9 9 10 10 11 11 12 12 13 13
REMARK SMILES IDX 14 14 22 15 23 16 24 17 25 18 26 19 27 20 28 21 29 22 30 23
REMARK SMILES IDX 15 24 17 25 21 26 18 27 19 28 16 29 20 30
REMARK H PARENT
ROOT
ATOM      1  C   UNL     1      -4.845  -1.948   0.000  1.00  0.00     0.020 C 
ATOM      2  C   UNL     1      -4.979  -0.454   0.000  1.00  0.00     0.027 C 
ATOM      3  C   UNL     1      -6.427  -0.845   0.000  1.00  0.00     0.020 C 
ATOM      4  C   UNL     1      -5.617   0.904   0.000  1.00  0.00     0.138 C 
ATOM      5  O   UNL     1      -7.111   1.031   0.000  1.00  0.00    -0.299 OA
ATOM      6  C   UNL     1      -4.760   2.135   0.000  1.00  0.00     0.077 C 
ATOM      7  C   UNL     1      -3.265   2.008   0.000  1.00  0.00     0.015 C 
ATOM      8  C   UNL     1      -2.628   0.650   0.000  1.00  0.00    -0.025 C 
ATOM      9  C   UNL     1      -1.770   1.881   0.000  1.00  0.00     0.012 C 
ATOM     10  C   UNL     1      -1.133   0.523   0.000  1.00  0.00     0.002 C 
ATOM     11  C   UNL     1      -0.276   1.754   0.000  1.00  0.00     0.005 C 
ATOM     12  C   UNL     1       1.219   1.627   0.000  1.00  0.00     0.005 C 
ATOM     13  C   UNL     1       1.856   0.269   0.000  1.00  0.00     0.002 C 
ATOM     14  C   UNL     1       3.292  -0.166   0.000  1.00  0.00     0.037 C 
ATOM     15  C   UNL     1       3.322  -1.665   0.000  1.00  0.00     0.008 C 
ATOM     16  C   UNL     1       1.905  -2.157   0.000  1.00  0.00     0.008 C 
ATOM     17  C   UNL     1       0.999  -0.962   0.000  1.00  0.00    -0.024 C 
ATOM     18  C   UNL     1       0.275  -2.275   0.000  1.00  0.00     0.012 C 
ATOM     19  C   UNL     1      -0.496  -0.835   0.000  1.00  0.00    -0.024 C 
ATOM     20  C   UNL     1      -1.990  -0.708   0.000  1.00  0.00     0.012 C 
ATOM     21  C   UNL     1      -1.353  -2.065   0.000  1.00  0.00     0.008 C 
ATOM     22  C   UNL     1      -2.848  -1.938   0.000  1.00  0.00     0.006 C 
ATOM     23  C   UNL     1      -3.485  -0.581   0.000  1.00  0.00     0.008 C 
ENDROOT
BRANCH  14  24
ATOM     24  C   UNL     1       4.487   0.740   0.000  1.00  0.00     0.113 C 
ATOM     25  C   UNL     1       5.469   1.875   0.000  1.00  0.00     0.060 C 
ATOM     26  O   UNL     1       5.263  -0.544   0.000  1.00  0.00    -0.459 OA
ATOM     27  C   UNL     1       6.851   1.292   0.000  1.00  0.00     0.127 C 
ATOM     28  C   UNL     1       6.724  -0.203   0.000  1.00  0.00     0.306 C 
ATOM     29  C   UNL     1       3.462   1.835   0.000  1.00  0.00     0.057 C 
ATOM     30  O   UNL     1       7.859  -1.184   0.000  1.00  0.00    -0.252 OA
ENDBRANCH  14  24
TORSDOF 1
