REMARK SMILES CC(=O)OCC(=O)C[C@@H]1CC(=O)C2[C@@]3(C)C(CC[C@]21C)[C@@]1(C)C=CC(=O)C(C)(C)C1C[C@H]3OC(C)=O
REMARK SMILES IDX 6 1 7 2 5 3 4 4 2 5 1 6 3 7 8 8 9 9 10 10 19 11 11 12 18 13
REMARK SMILES IDX 13 14 17 15 14 16 16 17 32 18 21 19 31 20 23 21 30 22 24 23
REMARK SMILES IDX 27 24 25 25 20 26 12 27 15 28 22 29 28 30 29 31 26 32 33 33
REMARK SMILES IDX 34 34 35 35 36 36
REMARK H PARENT
ROOT
ATOM      1  C   UNL     1       5.304  -0.003   0.000  1.00  0.00     0.170 C 
ATOM      2  O   UNL     1       5.308   1.498   0.000  1.00  0.00    -0.296 OA
ENDROOT
BRANCH   1   3
ATOM      3  C   UNL     1       6.601  -0.756   0.000  1.00  0.00     0.308 C 
BRANCH   3   4
ATOM      4  O   UNL     1       7.902  -0.009   0.000  1.00  0.00    -0.458 OA
BRANCH   4   5
ATOM      5  C   UNL     1       9.199  -0.763   0.000  1.00  0.00     0.303 C 
ATOM      6  C   UNL     1      10.500  -0.016   0.000  1.00  0.00     0.139 C 
ATOM      7  O   UNL     1       9.195  -2.263   0.000  1.00  0.00    -0.253 OA
ENDBRANCH   4   5
ENDBRANCH   3   4
ENDBRANCH   1   3
BRANCH   1   8
ATOM      8  C   UNL     1       4.003  -0.749   0.000  1.00  0.00     0.084 C 
BRANCH   8   9
ATOM      9  C   UNL     1       2.705   0.004   0.000  1.00  0.00     0.010 C 
ATOM     10  C   UNL     1       2.553   1.497   0.000  1.00  0.00     0.080 C 
ATOM     11  C   UNL     1       1.334  -0.602   0.000  1.00  0.00    -0.018 C 
ATOM     12  C   UNL     1       1.086   1.812   0.000  1.00  0.00     0.137 C 
ATOM     13  C   UNL     1       0.866  -2.027   0.000  1.00  0.00     0.008 C 
ATOM     14  C   UNL     1       0.333   0.515   0.000  1.00  0.00     0.072 C 
ATOM     15  C   UNL     1      -0.602  -2.335   0.000  1.00  0.00     0.006 C 
ATOM     16  C   UNL     1      -1.135   0.208   0.000  1.00  0.00     0.019 C 
ATOM     17  C   UNL     1      -1.603  -1.218   0.000  1.00  0.00     0.009 C 
ATOM     18  C   UNL     1      -2.136   1.325   0.000  1.00  0.00     0.183 C 
ATOM     19  C   UNL     1      -3.071  -1.526   0.000  1.00  0.00    -0.007 C 
ATOM     20  C   UNL     1      -3.604   1.017   0.000  1.00  0.00     0.051 C 
ATOM     21  C   UNL     1      -3.538  -2.951   0.000  1.00  0.00    -0.016 C 
ATOM     22  C   UNL     1      -4.071  -0.408   0.000  1.00  0.00     0.016 C 
ATOM     23  C   UNL     1      -5.006  -3.259   0.000  1.00  0.00     0.044 C 
ATOM     24  C   UNL     1      -5.539  -0.716   0.000  1.00  0.00     0.031 C 
ATOM     25  C   UNL     1      -6.007  -2.142   0.000  1.00  0.00     0.161 C 
ATOM     26  C   UNL     1       2.446  -1.609   0.000  1.00  0.00     0.012 C 
ATOM     27  O   UNL     1       0.480   3.184   0.000  1.00  0.00    -0.299 OA
ATOM     28  C   UNL     1      -0.668   1.633   0.000  1.00  0.00     0.016 C 
ATOM     29  C   UNL     1      -2.070  -2.643   0.000  1.00  0.00     0.016 C 
ATOM     30  C   UNL     1      -5.588   0.783   0.000  1.00  0.00     0.020 C 
ATOM     31  C   UNL     1      -7.024  -0.503   0.000  1.00  0.00     0.020 C 
ATOM     32  O   UNL     1      -7.475  -2.450   0.000  1.00  0.00    -0.294 OA
BRANCH  18  33
ATOM     33  O   UNL     1      -1.669   2.750   0.000  1.00  0.00    -0.462 OA
BRANCH  33  34
ATOM     34  C   UNL     1      -2.669   3.868   0.000  1.00  0.00     0.302 C 
ATOM     35  C   UNL     1      -2.202   5.293   0.000  1.00  0.00     0.139 C 
ATOM     36  O   UNL     1      -4.137   3.560   0.000  1.00  0.00    -0.253 OA
ENDBRANCH  33  34
ENDBRANCH  18  33
ENDBRANCH   8   9
ENDBRANCH   1   8
TORSDOF 7
