REMARK SMILES c1ccc(CSSSCSSSCc2ccccc2)cc1
REMARK SMILES IDX 9 1 8 2 7 3 6 4 5 5 4 6 1 7 2 8 21 9 3 10 20 11 10 12 11 13
REMARK SMILES IDX 12 14 13 15 14 16 15 17 19 18 16 19 18 20 17 21
REMARK H PARENT
ROOT
ATOM      1  C   UNL     1      -0.000   1.000   0.000  1.00  0.00     0.164 C 
ENDROOT
BRANCH   1   2
ATOM      2  S   UNL     1      -1.299   0.250   0.000  1.00  0.00    -0.071 SA
BRANCH   2   3
ATOM      3  S   UNL     1      -2.598   1.000   0.000  1.00  0.00    -0.024 SA
BRANCH   3   4
ATOM      4  S   UNL     1      -3.897   0.250   0.000  1.00  0.00    -0.078 SA
BRANCH   4   5
ATOM      5  C   UNL     1      -5.196   1.000   0.000  1.00  0.00     0.118 C 
BRANCH   5   6
ATOM      6  C   UNL     1      -6.495   0.250   0.000  1.00  0.00    -0.037 A 
ATOM      7  C   UNL     1      -9.093  -1.250   0.000  1.00  0.00     0.000 A 
ATOM      8  C   UNL     1      -9.093   0.250   0.000  1.00  0.00     0.000 A 
ATOM      9  C   UNL     1      -7.794  -2.000   0.000  1.00  0.00     0.000 A 
ATOM     10  C   UNL     1      -7.794   1.000   0.000  1.00  0.00     0.004 A 
ATOM     11  C   UNL     1      -6.495  -1.250   0.000  1.00  0.00     0.004 A 
ENDBRANCH   5   6
ENDBRANCH   4   5
ENDBRANCH   3   4
ENDBRANCH   2   3
ENDBRANCH   1   2
BRANCH   1  12
ATOM     12  S   UNL     1       1.299   0.250   0.000  1.00  0.00    -0.071 SA
BRANCH  12  13
ATOM     13  S   UNL     1       2.598   1.000   0.000  1.00  0.00    -0.024 SA
BRANCH  13  14
ATOM     14  S   UNL     1       3.897   0.250   0.000  1.00  0.00    -0.078 SA
BRANCH  14  15
ATOM     15  C   UNL     1       5.196   1.000   0.000  1.00  0.00     0.118 C 
BRANCH  15  16
ATOM     16  C   UNL     1       6.495   0.250   0.000  1.00  0.00    -0.037 A 
ATOM     17  C   UNL     1       6.495  -1.250   0.000  1.00  0.00     0.004 A 
ATOM     18  C   UNL     1       7.794   1.000   0.000  1.00  0.00     0.004 A 
ATOM     19  C   UNL     1       7.794  -2.000   0.000  1.00  0.00     0.000 A 
ATOM     20  C   UNL     1       9.093   0.250   0.000  1.00  0.00     0.000 A 
ATOM     21  C   UNL     1       9.093  -1.250   0.000  1.00  0.00     0.000 A 
ENDBRANCH  15  16
ENDBRANCH  14  15
ENDBRANCH  13  14
ENDBRANCH  12  13
ENDBRANCH   1  12
TORSDOF 10
