REMARK SMILES C=C(C)[C@@H]1CC[C@]2(C)CC[C@]3(C)[C@H](CC[C@@H]4[C@@]5(C)CC[C@H](OC(=O)CCCCC)C(C)(C)[C@@H]5CC[C@]43C)[C@@H]12
REMARK SMILES IDX 23 1 24 2 22 3 21 4 4 5 5 6 38 7 6 8 13 9 7 10 11 11 14 12
REMARK SMILES IDX 9 13 10 14 36 15 15 16 35 17 16 18 34 19 17 20 33 21 19 22
REMARK SMILES IDX 30 23 20 24 8 25 12 26 37 27 18 28 31 29 32 30 2 31 1 32
REMARK SMILES IDX 3 33 25 34 26 35 27 36 28 37 29 38
REMARK H PARENT
ROOT
ATOM      1  C   UNL     1      -6.066  -0.178   0.000  1.00  0.00     0.306 C 
ATOM      2  O   UNL     1      -5.520  -1.575   0.000  1.00  0.00    -0.252 OA
ENDROOT
BRANCH   1   3
ATOM      3  O   UNL     1      -5.128   0.994   0.000  1.00  0.00    -0.462 OA
BRANCH   3   4
ATOM      4  C   UNL     1      -3.646   0.767   0.000  1.00  0.00     0.182 C 
ATOM      5  C   UNL     1       6.076  -1.843   0.000  1.00  0.00     0.018 C 
ATOM      6  C   UNL     1       7.522  -1.446   0.000  1.00  0.00     0.009 C 
ATOM      7  C   UNL     1       5.252  -0.590   0.000  1.00  0.00     0.006 C 
ATOM      8  C   UNL     1       7.592   0.052   0.000  1.00  0.00     0.008 C 
ATOM      9  C   UNL     1       3.769  -0.363   0.000  1.00  0.00    -0.000 C 
ATOM     10  C   UNL     1       6.189   0.582   0.000  1.00  0.00    -0.029 C 
ATOM     11  C   UNL     1       3.223   1.034   0.000  1.00  0.00    -0.024 C 
ATOM     12  C   UNL     1       2.832  -1.534   0.000  1.00  0.00     0.005 C 
ATOM     13  C   UNL     1       5.643   1.979   0.000  1.00  0.00     0.007 C 
ATOM     14  C   UNL     1       4.160   2.205   0.000  1.00  0.00     0.008 C 
ATOM     15  C   UNL     1       1.740   1.260   0.000  1.00  0.00    -0.024 C 
ATOM     16  C   UNL     1       1.349  -1.308   0.000  1.00  0.00     0.005 C 
ATOM     17  C   UNL     1       1.195   2.657   0.000  1.00  0.00     0.008 C 
ATOM     18  C   UNL     1       0.803   0.089   0.000  1.00  0.00     0.002 C 
ATOM     19  C   UNL     1      -0.288   2.883   0.000  1.00  0.00     0.005 C 
ATOM     20  C   UNL     1      -0.680   0.315   0.000  1.00  0.00    -0.026 C 
ATOM     21  C   UNL     1      -1.225   1.712   0.000  1.00  0.00     0.005 C 
ATOM     22  C   UNL     1      -1.617  -0.856   0.000  1.00  0.00     0.011 C 
ATOM     23  C   UNL     1      -2.708   1.938   0.000  1.00  0.00     0.005 C 
ATOM     24  C   UNL     1      -3.100  -0.630   0.000  1.00  0.00     0.046 C 
ATOM     25  C   UNL     1       7.244   1.648   0.000  1.00  0.00     0.011 C 
ATOM     26  C   UNL     1       2.678   2.431   0.000  1.00  0.00     0.012 C 
ATOM     27  C   UNL     1       2.286  -0.137   0.000  1.00  0.00     0.012 C 
ATOM     28  C   UNL     1      -0.134  -1.082   0.000  1.00  0.00     0.012 C 
ATOM     29  C   UNL     1      -2.228   3.360   0.000  1.00  0.00     0.015 C 
ATOM     30  C   UNL     1      -4.024   2.658   0.000  1.00  0.00     0.015 C 
BRANCH   5  31
ATOM     31  C   UNL     1       5.546  -3.246   0.000  1.00  0.00    -0.077 C 
ATOM     32  C   UNL     1       4.066  -3.490   0.000  1.00  0.00     0.008 C 
ATOM     33  C   UNL     1       6.497  -4.407   0.000  1.00  0.00     0.039 C 
ENDBRANCH   5  31
ENDBRANCH   3   4
ENDBRANCH   1   3
BRANCH   1  34
ATOM     34  C   UNL     1      -7.548   0.049   0.000  1.00  0.00     0.123 C 
BRANCH  34  35
ATOM     35  C   UNL     1      -8.486  -1.123   0.000  1.00  0.00     0.012 C 
BRANCH  35  36
ATOM     36  C   UNL     1      -9.969  -0.896   0.000  1.00  0.00     0.000 C 
BRANCH  36  37
ATOM     37  C   UNL     1     -10.906  -2.067   0.000  1.00  0.00    -0.003 C 
ATOM     38  C   UNL     1     -12.389  -1.841   0.000  1.00  0.00     0.004 C 
ENDBRANCH  36  37
ENDBRANCH  35  36
ENDBRANCH  34  35
ENDBRANCH   1  34
TORSDOF 7
