REMARK SMILES COC(=O)C[C@H]1[C@]2(C)C3=C(C)[C@H](c4ccoc4)CC3O[C@@H]2[C@@H]2OC(=O)[C@]3(C)C=CC(=O)[C@@]1(C)C23
REMARK SMILES IDX 3 1 4 2 2 3 1 4 5 5 6 6 7 7 32 8 9 9 21 10 30 11 34 12 10 13
REMARK SMILES IDX 19 14 20 15 22 16 29 17 26 18 12 19 18 20 23 21 28 22 24 23
REMARK SMILES IDX 8 24 33 25 31 26 11 27 27 28 25 29 13 30 17 31 14 32 16 33
REMARK SMILES IDX 15 34
REMARK H PARENT
ROOT
ATOM      1  C   UNL     1       1.090   3.166   0.000  1.00  0.00     0.305 C 
ATOM      2  O   UNL     1       2.074   3.156   0.000  1.00  0.00    -0.252 OA
ENDROOT
BRANCH   1   3
ATOM      3  O   UNL     1       0.518   4.553   0.000  1.00  0.00    -0.469 OA
ATOM      4  C   UNL     1       1.434   5.741   0.000  1.00  0.00     0.282 C 
ENDBRANCH   1   3
BRANCH   1   5
ATOM      5  C   UNL     1       0.174   1.978   0.000  1.00  0.00     0.128 C 
BRANCH   5   6
ATOM      6  C   UNL     1       0.746   0.591   0.000  1.00  0.00     0.027 C 
ATOM      7  C   UNL     1      -0.170  -0.597   0.000  1.00  0.00     0.025 C 
ATOM      8  C   UNL     1       2.232   0.392   0.000  1.00  0.00     0.042 C 
ATOM      9  C   UNL     1      -1.666  -0.712   0.000  1.00  0.00    -0.033 C 
ATOM     10  C   UNL     1       0.401  -1.984   0.000  1.00  0.00     0.170 C 
ATOM     11  C   UNL     1       3.148   1.581   0.000  1.00  0.00     0.162 C 
ATOM     12  C   UNL     1       2.804  -0.995   0.000  1.00  0.00     0.068 C 
ATOM     13  C   UNL     1      -2.943   0.074   0.000  1.00  0.00    -0.063 C 
ATOM     14  C   UNL     1      -2.019  -2.170   0.000  1.00  0.00     0.146 C 
ATOM     15  O   UNL     1      -0.741  -2.956   0.000  1.00  0.00    -0.366 OA
ATOM     16  C   UNL     1       1.888  -2.183   0.000  1.00  0.00     0.212 C 
ATOM     17  C   UNL     1       4.635   1.382   0.000  1.00  0.00     0.044 C 
ATOM     18  C   UNL     1       4.290  -1.193   0.000  1.00  0.00     0.091 C 
ATOM     19  C   UNL     1      -4.086  -0.897   0.000  1.00  0.00     0.051 C 
ATOM     20  C   UNL     1      -3.514  -2.284   0.000  1.00  0.00     0.049 C 
ATOM     21  O   UNL     1       2.860  -3.325   0.000  1.00  0.00    -0.459 OA
ATOM     22  C   UNL     1       5.206  -0.005   0.000  1.00  0.00    -0.005 C 
ATOM     23  C   UNL     1       4.247  -2.754   0.000  1.00  0.00     0.316 C 
ATOM     24  C   UNL     1      -0.883   0.723   0.000  1.00  0.00     0.019 C 
ATOM     25  C   UNL     1       1.661   1.779   0.000  1.00  0.00     0.021 C 
ATOM     26  O   UNL     1       2.887   2.529   0.000  1.00  0.00    -0.294 OA
ATOM     27  C   UNL     1      -3.058   1.570   0.000  1.00  0.00     0.040 C 
ATOM     28  C   UNL     1       5.180  -2.401   0.000  1.00  0.00     0.029 C 
ATOM     29  O   UNL     1       5.524  -3.540   0.000  1.00  0.00    -0.251 OA
BRANCH  19  30
ATOM     30  C   UNL     1      -5.543  -0.544   0.000  1.00  0.00    -0.002 A 
ATOM     31  C   UNL     1      -6.686  -1.516   0.000  1.00  0.00     0.199 A 
ATOM     32  C   UNL     1      -6.115   0.843   0.000  1.00  0.00     0.046 A 
ATOM     33  O   UNL     1      -7.963  -0.730   0.000  1.00  0.00    -0.472 OA
ATOM     34  C   UNL     1      -7.610   0.728   0.000  1.00  0.00     0.195 A 
ENDBRANCH  19  30
ENDBRANCH   5   6
ENDBRANCH   1   5
TORSDOF 4
