REMARK SMILES C=C(C)C1C[C@H](O)[C@]2(C)C(CCC3[C@@H]([C@]4(C)CC[C@@H](C(C)(C)O)O4)CC[C@]32C)[C@@]1(C)CCC(=O)O
REMARK SMILES IDX 4 1 5 2 6 3 8 4 9 5 10 6 11 7 12 8 13 9 14 10 25 11 26 12
REMARK SMILES IDX 27 13 28 14 29 15 30 16 2 17 1 18 3 19 31 20 32 21 33 22
REMARK SMILES IDX 34 23 35 24 7 26 15 28 17 29 24 30 18 31 19 32 16 33 20 34
REMARK SMILES IDX 21 35 22 36 23 37
REMARK H PARENT 35 25 7 27 23 38
ROOT
ATOM      1  C   UNL     1      -3.857  -1.267   0.000  1.00  0.00     0.023 C 
ATOM      2  C   UNL     1      -3.021  -2.513   0.000  1.00  0.00     0.041 C 
ATOM      3  C   UNL     1      -1.525  -2.412   0.000  1.00  0.00     0.121 C 
ATOM      4  C   UNL     1      -0.864  -1.066   0.000  1.00  0.00     0.002 C 
ATOM      5  C   UNL     1      -2.360  -1.166   0.000  1.00  0.00     0.015 C 
ATOM      6  C   UNL     1      -1.699   0.180   0.000  1.00  0.00     0.005 C 
ATOM      7  C   UNL     1      -1.038   1.526   0.000  1.00  0.00     0.005 C 
ATOM      8  C   UNL     1       0.459   1.627   0.000  1.00  0.00     0.005 C 
ATOM      9  C   UNL     1       1.294   0.381   0.000  1.00  0.00     0.001 C 
ATOM     10  C   UNL     1       2.779   0.168   0.000  1.00  0.00     0.025 C 
ATOM     11  C   UNL     1       3.036  -1.310   0.000  1.00  0.00     0.007 C 
ATOM     12  C   UNL     1       1.709  -2.010   0.000  1.00  0.00     0.008 C 
ATOM     13  C   UNL     1       0.633  -0.965   0.000  1.00  0.00    -0.021 C 
ATOM     14  C   UNL     1       0.116  -2.373   0.000  1.00  0.00     0.012 C 
ATOM     15  C   UNL     1      -3.195   0.080   0.000  1.00  0.00    -0.022 C 
ATOM     16  C   UNL     1      -3.034   1.571   0.000  1.00  0.00     0.012 C 
ENDROOT
BRANCH   1  17
ATOM     17  C   UNL     1      -5.353  -1.367   0.000  1.00  0.00    -0.077 C 
ATOM     18  C   UNL     1      -6.015  -2.714   0.000  1.00  0.00     0.008 C 
ATOM     19  C   UNL     1      -6.189  -0.121   0.000  1.00  0.00     0.039 C 
ENDBRANCH   1  17
BRANCH  15  20
ATOM     20  C   UNL     1      -4.636   0.497   0.000  1.00  0.00     0.019 C 
BRANCH  20  21
ATOM     21  C   UNL     1      -4.995   1.954   0.000  1.00  0.00     0.123 C 
BRANCH  21  22
ATOM     22  C   UNL     1      -6.436   2.371   0.000  1.00  0.00     0.303 C 
ATOM     23  O   UNL     1      -7.518   1.332   0.000  1.00  0.00    -0.252 OA
BRANCH  22  24
ATOM     24  O   UNL     1      -6.795   3.828   0.000  1.00  0.00    -0.481 OA
ATOM     25  H   UNL     1       0.000   0.000   0.000  1.00  0.00     0.296 HD
ENDBRANCH  22  24
ENDBRANCH  21  22
ENDBRANCH  20  21
ENDBRANCH  15  20
BRANCH   3  26
ATOM     26  O   UNL     1      -0.690  -3.658   0.000  1.00  0.00    -0.393 OA
ATOM     27  H   UNL     1       0.000   0.000   0.000  1.00  0.00     0.210 HD
ENDBRANCH   3  26
BRANCH  10  28
ATOM     28  C   UNL     1       3.824   1.244   0.000  1.00  0.00     0.069 C 
ATOM     29  C   UNL     1       4.623   2.514   0.000  1.00  0.00     0.038 C 
ATOM     30  O   UNL     1       4.785   0.092   0.000  1.00  0.00    -0.369 OA
ATOM     31  C   UNL     1       6.077   2.147   0.000  1.00  0.00     0.038 C 
ATOM     32  C   UNL     1       6.178   0.650   0.000  1.00  0.00     0.150 C 
ATOM     33  C   UNL     1       2.645   2.171   0.000  1.00  0.00     0.042 C 
BRANCH  32  34
ATOM     34  C   UNL     1       7.447  -0.148   0.000  1.00  0.00     0.085 C 
ATOM     35  C   UNL     1       8.246   1.122   0.000  1.00  0.00     0.044 C 
ATOM     36  C   UNL     1       6.649  -1.418   0.000  1.00  0.00     0.044 C 
BRANCH  34  37
ATOM     37  O   UNL     1       8.717  -0.946   0.000  1.00  0.00    -0.388 OA
ATOM     38  H   UNL     1       0.000   0.000   0.000  1.00  0.00     0.211 HD
ENDBRANCH  34  37
ENDBRANCH  32  34
ENDBRANCH  10  28
TORSDOF 9
