REMARK SMILES C=CCc1cc2c(cc1O)O[C@H](c1cc(OC)c(OC)c(OC)c1)[C@H]2C
REMARK SMILES IDX 4 1 5 2 6 3 7 4 8 5 9 6 11 7 12 8 25 9 26 10 3 11 2 12 1 13
REMARK SMILES IDX 10 14 13 16 14 17 24 18 15 19 21 20 18 21 16 22 17 23 22 24
REMARK SMILES IDX 23 25 19 26 20 27
REMARK H PARENT 10 15
ROOT
ATOM      1  C   UNL     1       4.813   0.140   0.000  1.00  0.00    -0.002 A 
ATOM      2  C   UNL     1       3.594  -0.736   0.000  1.00  0.00     0.015 A 
ATOM      3  C   UNL     1       2.227  -0.118   0.000  1.00  0.00     0.002 A 
ATOM      4  C   UNL     1       2.078   1.374   0.000  1.00  0.00     0.127 A 
ATOM      5  C   UNL     1       3.297   2.249   0.000  1.00  0.00     0.093 A 
ATOM      6  C   UNL     1       4.664   1.632   0.000  1.00  0.00     0.122 A 
ATOM      7  O   UNL     1       0.613   1.694   0.000  1.00  0.00    -0.485 OA
ATOM      8  C   UNL     1      -0.144   0.399   0.000  1.00  0.00     0.211 C 
ATOM      9  C   UNL     1       0.854  -0.721   0.000  1.00  0.00     0.065 C 
ATOM     10  C   UNL     1       0.534  -2.187   0.000  1.00  0.00     0.017 C 
ENDROOT
BRANCH   1  11
ATOM     11  C   UNL     1       6.180  -0.478   0.000  1.00  0.00     0.066 C 
BRANCH  11  12
ATOM     12  C   UNL     1       6.329  -1.970   0.000  1.00  0.00    -0.030 C 
ATOM     13  C   UNL     1       7.696  -2.588   0.000  1.00  0.00     0.004 C 
ENDBRANCH  11  12
ENDBRANCH   1  11
BRANCH   6  14
ATOM     14  O   UNL     1       5.882   2.507   0.000  1.00  0.00    -0.508 OA
ATOM     15  H   UNL     1       0.000   0.000   0.000  1.00  0.00     0.293 HD
ENDBRANCH   6  14
BRANCH   8  16
ATOM     16  C   UNL     1      -1.637   0.250   0.000  1.00  0.00     0.001 A 
ATOM     17  C   UNL     1      -2.512   1.468   0.000  1.00  0.00     0.058 A 
ATOM     18  C   UNL     1      -2.254  -1.117   0.000  1.00  0.00     0.058 A 
ATOM     19  C   UNL     1      -4.004   1.319   0.000  1.00  0.00     0.165 A 
ATOM     20  C   UNL     1      -3.747  -1.266   0.000  1.00  0.00     0.165 A 
ATOM     21  C   UNL     1      -4.622  -0.048   0.000  1.00  0.00     0.203 A 
BRANCH  19  22
ATOM     22  O   UNL     1      -4.880   2.537   0.000  1.00  0.00    -0.493 OA
ATOM     23  C   UNL     1      -4.262   3.904   0.000  1.00  0.00     0.278 C 
ENDBRANCH  19  22
BRANCH  20  24
ATOM     24  O   UNL     1      -4.364  -2.633   0.000  1.00  0.00    -0.493 OA
ATOM     25  C   UNL     1      -3.489  -3.851   0.000  1.00  0.00     0.278 C 
ENDBRANCH  20  24
BRANCH  21  26
ATOM     26  O   UNL     1      -6.114  -0.197   0.000  1.00  0.00    -0.490 OA
ATOM     27  C   UNL     1      -6.732  -1.564   0.000  1.00  0.00     0.278 C 
ENDBRANCH  21  26
ENDBRANCH   8  16
TORSDOF 7
