REMARK SMILES COc1c2ccoc2c(OC)c2oc(=O)ccc12
REMARK SMILES IDX 3 1 4 2 5 3 6 4 7 5 8 6 9 7 12 8 18 9 17 10 16 11 14 12
REMARK SMILES IDX 15 13 13 14 2 15 1 16 10 17 11 18
REMARK H PARENT
ROOT
ATOM      1  C   UNL     1      -1.013  -1.319   0.000  1.00  0.00     0.141 A 
ATOM      2  C   UNL     1      -1.982  -0.174   0.000  1.00  0.00     0.067 A 
ATOM      3  C   UNL     1      -3.481  -0.128   0.000  1.00  0.00     0.055 A 
ATOM      4  C   UNL     1      -3.900   1.313   0.000  1.00  0.00     0.197 A 
ATOM      5  O   UNL     1      -2.660   2.157   0.000  1.00  0.00    -0.460 OA
ATOM      6  C   UNL     1      -1.474   1.238   0.000  1.00  0.00     0.183 A 
ATOM      7  C   UNL     1       0.002   1.505   0.000  1.00  0.00     0.206 A 
ATOM      8  C   UNL     1       0.971   0.360   0.000  1.00  0.00     0.187 A 
ATOM      9  C   UNL     1       0.464  -1.052   0.000  1.00  0.00     0.064 A 
ATOM     10  C   UNL     1       1.433  -2.197   0.000  1.00  0.00     0.023 A 
ATOM     11  C   UNL     1       2.909  -1.930   0.000  1.00  0.00     0.095 A 
ATOM     12  C   UNL     1       3.416  -0.519   0.000  1.00  0.00     0.336 A 
ATOM     13  O   UNL     1       4.892  -0.252   0.000  1.00  0.00    -0.246 OA
ATOM     14  O   UNL     1       2.447   0.626   0.000  1.00  0.00    -0.418 OA
ENDROOT
BRANCH   1  15
ATOM     15  O   UNL     1      -1.520  -2.730   0.000  1.00  0.00    -0.495 OA
ATOM     16  C   UNL     1      -2.996  -2.997   0.000  1.00  0.00     0.278 C 
ENDBRANCH   1  15
BRANCH   7  17
ATOM     17  O   UNL     1       0.509   2.916   0.000  1.00  0.00    -0.490 OA
ATOM     18  C   UNL     1       1.985   3.183   0.000  1.00  0.00     0.278 C 
ENDBRANCH   7  17
TORSDOF 2
