REMARK SMILES C=C/C(C)=C/C[C@]1(C)[C@H]2C[C@@H](O)C=C3[C@H](OC(C)=O)O[C@@H](OC(C)=O)[C@@]32[C@H](OC(=O)c2ccccc2)C[C@@H]1C
REMARK SMILES IDX 6 1 5 2 3 3 4 4 2 5 1 6 7 7 9 8 38 9 10 10 26 11 37 12 11 13
REMARK SMILES IDX 21 14 27 15 14 16 13 17 20 18 15 19 8 20 39 21 12 22 22 24
REMARK SMILES IDX 23 25 24 26 25 27 28 28 29 29 30 30 31 31 32 32 36 33 33 34
REMARK SMILES IDX 35 35 34 36 16 37 17 38 18 39 19 40
REMARK H PARENT 12 23
ROOT
ATOM      1  C   UNL     1       4.093  -0.087   0.000  1.00  0.00     0.035 C 
ENDROOT
BRANCH   1   2
ATOM      2  C   UNL     1       5.401  -0.822   0.000  1.00  0.00    -0.023 C 
BRANCH   2   3
ATOM      3  C   UNL     1       6.691  -0.057   0.000  1.00  0.00    -0.056 C 
ATOM      4  C   UNL     1       6.673   1.443   0.000  1.00  0.00     0.044 C 
BRANCH   3   5
ATOM      5  C   UNL     1       7.999  -0.791   0.000  1.00  0.00    -0.005 C 
ATOM      6  C   UNL     1       8.016  -2.291   0.000  1.00  0.00     0.009 C 
ENDBRANCH   3   5
ENDBRANCH   2   3
ENDBRANCH   1   2
BRANCH   1   7
ATOM      7  C   UNL     1       2.112  -0.740   0.000  1.00  0.00    -0.022 C 
ATOM      8  C   UNL     1       2.273   0.550   0.000  1.00  0.00     0.019 C 
ATOM      9  C   UNL     1       1.605  -1.358   0.000  1.00  0.00    -0.004 C 
ATOM     10  C   UNL     1       3.224   1.711   0.000  1.00  0.00     0.041 C 
ATOM     11  C   UNL     1       0.793   0.793   0.000  1.00  0.00     0.100 C 
ATOM     12  C   UNL     1       0.816  -1.229   0.000  1.00  0.00     0.050 C 
ATOM     13  C   UNL     1       2.694   3.114   0.000  1.00  0.00     0.137 C 
ATOM     14  C   UNL     1      -0.378  -0.144   0.000  1.00  0.00     0.328 C 
ATOM     15  C   UNL     1       0.533  -0.480   0.000  1.00  0.00     0.194 C 
ATOM     16  C   UNL     1       0.263   2.197   0.000  1.00  0.00     0.013 C 
ATOM     17  C   UNL     1       1.214   3.357   0.000  1.00  0.00     0.011 C 
ATOM     18  O   UNL     1      -1.631   0.680   0.000  1.00  0.00    -0.298 OA
ATOM     19  C   UNL     1      -1.235   2.127   0.000  1.00  0.00     0.343 C 
ATOM     20  C   UNL     1       3.781  -1.990   0.000  1.00  0.00     0.012 C 
ATOM     21  C   UNL     1       2.382  -3.417   0.000  1.00  0.00     0.008 C 
BRANCH  13  22
ATOM     22  O   UNL     1       3.644   4.275   0.000  1.00  0.00    -0.389 OA
ATOM     23  H   UNL     1       0.000   0.000   0.000  1.00  0.00     0.211 HD
ENDBRANCH  13  22
BRANCH  14  24
ATOM     24  O   UNL     1      -0.308  -1.642   0.000  1.00  0.00    -0.435 OA
BRANCH  24  25
ATOM     25  C   UNL     1      -1.571  -2.452   0.000  1.00  0.00     0.304 C 
ATOM     26  C   UNL     1      -1.500  -3.951   0.000  1.00  0.00     0.139 C 
ATOM     27  O   UNL     1      -3.030  -2.107   0.000  1.00  0.00    -0.253 OA
ENDBRANCH  24  25
ENDBRANCH  14  24
BRANCH  15  28
ATOM     28  O   UNL     1      -1.638  -0.124   0.000  1.00  0.00    -0.458 OA
BRANCH  28  29
ATOM     29  C   UNL     1      -2.588  -1.284   0.000  1.00  0.00     0.338 C 
ATOM     30  O   UNL     1      -2.414  -2.774   0.000  1.00  0.00    -0.246 OA
BRANCH  29  31
ATOM     31  C   UNL     1      -4.068  -1.042   0.000  1.00  0.00     0.060 A 
ATOM     32  C   UNL     1      -4.598   0.362   0.000  1.00  0.00     0.015 A 
ATOM     33  C   UNL     1      -5.019  -2.202   0.000  1.00  0.00     0.015 A 
ATOM     34  C   UNL     1      -6.078   0.605   0.000  1.00  0.00     0.001 A 
ATOM     35  C   UNL     1      -6.499  -1.959   0.000  1.00  0.00     0.001 A 
ATOM     36  C   UNL     1      -7.029  -0.556   0.000  1.00  0.00     0.000 A 
ENDBRANCH  29  31
ENDBRANCH  28  29
ENDBRANCH  15  28
BRANCH  19  37
ATOM     37  O   UNL     1      -2.173   3.298   0.000  1.00  0.00    -0.432 OA
BRANCH  37  38
ATOM     38  C   UNL     1      -3.655   3.071   0.000  1.00  0.00     0.305 C 
ATOM     39  C   UNL     1      -4.593   4.242   0.000  1.00  0.00     0.139 C 
ATOM     40  O   UNL     1      -4.201   1.674   0.000  1.00  0.00    -0.253 OA
ENDBRANCH  37  38
ENDBRANCH  19  37
ENDBRANCH   1   7
TORSDOF 12
