REMARK SMILES COc1ccc(-c2c(O)c3c(OC)c4c(cc3oc2=O)OC(C)(C)C=C4)cc1
REMARK SMILES IDX 7 1 8 2 10 3 11 4 14 5 15 6 16 7 17 8 18 9 19 10 20 11 21 12
REMARK SMILES IDX 22 13 23 14 24 15 25 16 26 17 6 18 3 19 4 20 28 21 5 22
REMARK SMILES IDX 27 23 2 24 1 25 9 26 12 28 13 29
REMARK H PARENT 9 27
ROOT
ATOM      1  C   UNL     1      -1.827  -0.788   0.000  1.00  0.00     0.110 A 
ATOM      2  C   UNL     1      -0.785   0.291   0.000  1.00  0.00     0.145 A 
ATOM      3  C   UNL     1       0.671  -0.071   0.000  1.00  0.00     0.103 A 
ATOM      4  C   UNL     1       1.712   1.008   0.000  1.00  0.00     0.144 A 
ATOM      5  C   UNL     1       3.168   0.646   0.000  1.00  0.00     0.060 A 
ATOM      6  C   UNL     1       3.582  -0.796   0.000  1.00  0.00     0.135 A 
ATOM      7  C   UNL     1       2.540  -1.875   0.000  1.00  0.00     0.095 A 
ATOM      8  C   UNL     1       1.085  -1.513   0.000  1.00  0.00     0.149 A 
ATOM      9  O   UNL     1       0.043  -2.592   0.000  1.00  0.00    -0.422 OA
ATOM     10  C   UNL     1      -1.413  -2.230   0.000  1.00  0.00     0.347 A 
ATOM     11  O   UNL     1      -2.454  -3.310   0.000  1.00  0.00    -0.246 OA
ATOM     12  O   UNL     1       5.037  -1.158   0.000  1.00  0.00    -0.483 OA
ATOM     13  C   UNL     1       6.079  -0.079   0.000  1.00  0.00     0.122 C 
ATOM     14  C   UNL     1       7.427   0.580   0.000  1.00  0.00     0.061 C 
ATOM     15  C   UNL     1       6.961  -1.292   0.000  1.00  0.00     0.061 C 
ATOM     16  C   UNL     1       5.665   1.363   0.000  1.00  0.00     0.021 C 
ATOM     17  C   UNL     1       4.209   1.725   0.000  1.00  0.00     0.015 C 
ENDROOT
BRANCH   1  18
ATOM     18  C   UNL     1      -3.282  -0.426   0.000  1.00  0.00    -0.007 A 
ATOM     19  C   UNL     1      -6.193   0.298   0.000  1.00  0.00     0.118 A 
ATOM     20  C   UNL     1      -5.152   1.378   0.000  1.00  0.00     0.047 A 
ATOM     21  C   UNL     1      -5.779  -1.143   0.000  1.00  0.00     0.047 A 
ATOM     22  C   UNL     1      -3.696   1.016   0.000  1.00  0.00     0.013 A 
ATOM     23  C   UNL     1      -4.324  -1.506   0.000  1.00  0.00     0.013 A 
BRANCH  19  24
ATOM     24  O   UNL     1      -7.649   0.661   0.000  1.00  0.00    -0.497 OA
ATOM     25  C   UNL     1      -8.063   2.102   0.000  1.00  0.00     0.278 C 
ENDBRANCH  19  24
ENDBRANCH   1  18
BRANCH   2  26
ATOM     26  O   UNL     1      -1.199   1.733   0.000  1.00  0.00    -0.506 OA
ATOM     27  H   UNL     1       0.000   0.000   0.000  1.00  0.00     0.293 HD
ENDBRANCH   2  26
BRANCH   4  28
ATOM     28  O   UNL     1       1.298   2.450   0.000  1.00  0.00    -0.495 OA
ATOM     29  C   UNL     1       2.340   3.529   0.000  1.00  0.00     0.278 C 
ENDBRANCH   4  28
TORSDOF 4
