REMARK SMILES COc1cc(=O)oc2cc(O[C@@H]3O[C@H](CO)[C@@H](O)[C@H](O)[C@H]3O)cc(C)c12
REMARK SMILES IDX 12 1 13 2 14 3 17 4 19 5 21 6 11 7 10 8 3 9 4 10 26 11 5 12
REMARK SMILES IDX 24 13 8 14 7 15 23 16 9 17 6 18 25 19 2 20 1 21 22 22 15 24
REMARK SMILES IDX 16 25 20 27 18 29
REMARK H PARENT 22 23 16 26 20 28 18 30
ROOT
ATOM      1  C   UNL     1       2.464   1.005   0.000  1.00  0.00     0.339 C 
ATOM      2  O   UNL     1       2.373  -0.492   0.000  1.00  0.00    -0.332 OA
ATOM      3  C   UNL     1       3.623  -1.320   0.000  1.00  0.00     0.179 C 
ATOM      4  C   UNL     1       4.966  -0.651   0.000  1.00  0.00     0.177 C 
ATOM      5  C   UNL     1       5.058   0.846   0.000  1.00  0.00     0.180 C 
ATOM      6  C   UNL     1       3.807   1.674   0.000  1.00  0.00     0.214 C 
ENDROOT
BRANCH   1   7
ATOM      7  O   UNL     1       1.214   1.833   0.000  1.00  0.00    -0.462 OA
BRANCH   7   8
ATOM      8  C   UNL     1      -0.129   1.164   0.000  1.00  0.00     0.127 A 
ATOM      9  C   UNL     1      -4.156  -0.844   0.000  1.00  0.00     0.137 A 
ATOM     10  C   UNL     1      -5.407  -0.016   0.000  1.00  0.00     0.141 A 
ATOM     11  C   UNL     1      -2.814  -0.174   0.000  1.00  0.00     0.063 A 
ATOM     12  C   UNL     1      -5.315   1.482   0.000  1.00  0.00     0.339 A 
ATOM     13  C   UNL     1      -1.563  -1.002   0.000  1.00  0.00    -0.033 A 
ATOM     14  C   UNL     1      -2.722   1.323   0.000  1.00  0.00     0.146 A 
ATOM     15  O   UNL     1      -3.973   2.151   0.000  1.00  0.00    -0.422 OA
ATOM     16  C   UNL     1      -0.221  -0.333   0.000  1.00  0.00     0.051 A 
ATOM     17  C   UNL     1      -1.380   1.992   0.000  1.00  0.00     0.094 A 
ATOM     18  O   UNL     1      -6.566   2.310   0.000  1.00  0.00    -0.246 OA
ATOM     19  C   UNL     1      -1.655  -2.500   0.000  1.00  0.00     0.045 C 
BRANCH   9  20
ATOM     20  O   UNL     1      -4.248  -2.341   0.000  1.00  0.00    -0.496 OA
ATOM     21  C   UNL     1      -5.590  -3.010   0.000  1.00  0.00     0.278 C 
ENDBRANCH   9  20
ENDBRANCH   7   8
ENDBRANCH   1   7
BRANCH   6  22
ATOM     22  O   UNL     1       3.898   3.171   0.000  1.00  0.00    -0.384 OA
ATOM     23  H   UNL     1       0.000   0.000   0.000  1.00  0.00     0.211 HD
ENDBRANCH   6  22
BRANCH   3  24
ATOM     24  C   UNL     1       3.532  -2.817   0.000  1.00  0.00     0.191 C 
BRANCH  24  25
ATOM     25  O   UNL     1       2.189  -3.486   0.000  1.00  0.00    -0.394 OA
ATOM     26  H   UNL     1       0.000   0.000   0.000  1.00  0.00     0.210 HD
ENDBRANCH  24  25
ENDBRANCH   3  24
BRANCH   5  27
ATOM     27  O   UNL     1       6.400   1.515   0.000  1.00  0.00    -0.387 OA
ATOM     28  H   UNL     1       0.000   0.000   0.000  1.00  0.00     0.211 HD
ENDBRANCH   5  27
BRANCH   4  29
ATOM     29  O   UNL     1       6.216  -1.479   0.000  1.00  0.00    -0.387 OA
ATOM     30  H   UNL     1       0.000   0.000   0.000  1.00  0.00     0.211 HD
ENDBRANCH   4  29
TORSDOF 8
