REMARK SMILES COc1cc(O)c2c(=O)c(O[C@@H]3O[C@@H](C)[C@H](O)[C@@H](O)[C@H]3O)c(-c3ccc(O)c(O)c3)oc2c1
REMARK SMILES IDX 3 1 4 2 5 3 7 4 8 5 9 6 10 7 22 8 31 9 32 10 33 11 2 12 1 13
REMARK SMILES IDX 6 14 23 16 24 17 30 18 25 19 28 20 26 21 29 22 27 24 11 26
REMARK SMILES IDX 12 27 13 28 20 29 14 30 18 31 16 32 15 33 21 34 19 36 17 38
REMARK H PARENT 6 15 29 23 27 25 21 35 19 37 17 39
ROOT
ATOM      1  C   UNL     1       5.032  -1.748   0.000  1.00  0.00     0.126 A 
ATOM      2  C   UNL     1       4.107  -2.928   0.000  1.00  0.00     0.093 A 
ATOM      3  C   UNL     1       2.622  -2.718   0.000  1.00  0.00     0.134 A 
ATOM      4  C   UNL     1       2.061  -1.326   0.000  1.00  0.00     0.111 A 
ATOM      5  C   UNL     1       0.576  -1.115   0.000  1.00  0.00     0.239 A 
ATOM      6  O   UNL     1      -0.349  -2.296   0.000  1.00  0.00    -0.285 OA
ATOM      7  C   UNL     1       0.016   0.276   0.000  1.00  0.00     0.214 A 
ATOM      8  C   UNL     1       0.941   1.457   0.000  1.00  0.00     0.180 A 
ATOM      9  O   UNL     1       2.426   1.246   0.000  1.00  0.00    -0.452 OA
ATOM     10  C   UNL     1       2.986  -0.145   0.000  1.00  0.00     0.146 A 
ATOM     11  C   UNL     1       4.472  -0.356   0.000  1.00  0.00     0.094 A 
ENDROOT
BRANCH   1  12
ATOM     12  O   UNL     1       6.517  -1.958   0.000  1.00  0.00    -0.496 OA
ATOM     13  C   UNL     1       7.077  -3.350   0.000  1.00  0.00     0.278 C 
ENDBRANCH   1  12
BRANCH   3  14
ATOM     14  O   UNL     1       1.696  -3.898   0.000  1.00  0.00    -0.507 OA
ATOM     15  H   UNL     1       0.000   0.000   0.000  1.00  0.00     0.293 HD
ENDBRANCH   3  14
BRANCH   8  16
ATOM     16  C   UNL     1       0.381   2.848   0.000  1.00  0.00     0.025 A 
ATOM     17  C   UNL     1      -1.104   3.059   0.000  1.00  0.00     0.016 A 
ATOM     18  C   UNL     1       1.306   4.029   0.000  1.00  0.00     0.062 A 
ATOM     19  C   UNL     1      -1.664   4.450   0.000  1.00  0.00     0.051 A 
ATOM     20  C   UNL     1       0.746   5.421   0.000  1.00  0.00     0.158 A 
ATOM     21  C   UNL     1      -0.739   5.631   0.000  1.00  0.00     0.157 A 
BRANCH  20  22
ATOM     22  O   UNL     1       1.671   6.601   0.000  1.00  0.00    -0.504 OA
ATOM     23  H   UNL     1       0.000   0.000   0.000  1.00  0.00     0.293 HD
ENDBRANCH  20  22
BRANCH  21  24
ATOM     24  O   UNL     1      -1.299   7.023   0.000  1.00  0.00    -0.504 OA
ATOM     25  H   UNL     1       0.000   0.000   0.000  1.00  0.00     0.293 HD
ENDBRANCH  21  24
ENDBRANCH   8  16
BRANCH   7  26
ATOM     26  O   UNL     1      -1.469   0.487   0.000  1.00  0.00    -0.454 OA
BRANCH  26  27
ATOM     27  C   UNL     1      -2.394  -0.694   0.000  1.00  0.00     0.339 C 
ATOM     28  O   UNL     1      -1.834  -2.086   0.000  1.00  0.00    -0.335 OA
ATOM     29  C   UNL     1      -3.879  -0.483   0.000  1.00  0.00     0.214 C 
ATOM     30  C   UNL     1      -2.759  -3.266   0.000  1.00  0.00     0.151 C 
ATOM     31  C   UNL     1      -4.804  -1.664   0.000  1.00  0.00     0.180 C 
ATOM     32  C   UNL     1      -4.244  -3.056   0.000  1.00  0.00     0.174 C 
ATOM     33  C   UNL     1      -2.199  -4.658   0.000  1.00  0.00     0.042 C 
BRANCH  29  34
ATOM     34  O   UNL     1      -4.439   0.908   0.000  1.00  0.00    -0.384 OA
ATOM     35  H   UNL     1       0.000   0.000   0.000  1.00  0.00     0.211 HD
ENDBRANCH  29  34
BRANCH  31  36
ATOM     36  O   UNL     1      -6.289  -1.454   0.000  1.00  0.00    -0.387 OA
ATOM     37  H   UNL     1       0.000   0.000   0.000  1.00  0.00     0.211 HD
ENDBRANCH  31  36
BRANCH  32  38
ATOM     38  O   UNL     1      -5.169  -4.237   0.000  1.00  0.00    -0.388 OA
ATOM     39  H   UNL     1       0.000   0.000   0.000  1.00  0.00     0.211 HD
ENDBRANCH  32  38
ENDBRANCH  26  27
ENDBRANCH   7  26
TORSDOF 10
