REMARK SMILES COC(=O)C1=CO[C@@H](O[C@@H]2O[C@H](CO)[C@@H](O)[C@H](O)[C@H]2O)[C@H](C(C)OC(C)=O)[C@@H]1CC(=O)O
REMARK SMILES IDX 5 1 6 2 7 3 8 4 21 5 28 6 3 7 4 8 2 9 1 10 29 11 30 12 31 13
REMARK SMILES IDX 32 14 22 16 23 17 24 18 25 19 26 20 27 21 9 22 10 23 11 24
REMARK SMILES IDX 19 25 12 26 17 27 15 28 20 29 13 31 14 32 18 34 16 36
REMARK H PARENT 32 15 20 30 14 33 18 35 16 37
ROOT
ATOM      1  C   UNL     1       2.215  -1.595   0.000  1.00  0.00     0.076 C 
ATOM      2  C   UNL     1       0.867  -2.251   0.000  1.00  0.00     0.202 C 
ATOM      3  O   UNL     1      -0.376  -1.412   0.000  1.00  0.00    -0.471 OA
ATOM      4  C   UNL     1      -0.270   0.085   0.000  1.00  0.00     0.316 C 
ATOM      5  C   UNL     1       1.078   0.741   0.000  1.00  0.00     0.107 C 
ATOM      6  C   UNL     1       2.321  -0.099   0.000  1.00  0.00     0.054 C 
ENDROOT
BRANCH   1   7
ATOM      7  C   UNL     1       3.458  -2.435   0.000  1.00  0.00     0.337 C 
ATOM      8  O   UNL     1       4.389  -2.115   0.000  1.00  0.00    -0.246 OA
BRANCH   7   9
ATOM      9  O   UNL     1       3.353  -3.931   0.000  1.00  0.00    -0.466 OA
ATOM     10  C   UNL     1       4.595  -4.771   0.000  1.00  0.00     0.282 C 
ENDBRANCH   7   9
ENDBRANCH   1   7
BRANCH   6  11
ATOM     11  C   UNL     1       3.670   0.558   0.000  1.00  0.00     0.132 C 
BRANCH  11  12
ATOM     12  C   UNL     1       4.913  -0.282   0.000  1.00  0.00     0.303 C 
ATOM     13  O   UNL     1       6.262   0.375   0.000  1.00  0.00    -0.252 OA
BRANCH  12  14
ATOM     14  O   UNL     1       4.964  -1.265   0.000  1.00  0.00    -0.481 OA
ATOM     15  H   UNL     1       0.000   0.000   0.000  1.00  0.00     0.296 HD
ENDBRANCH  12  14
ENDBRANCH  11  12
ENDBRANCH   6  11
BRANCH   5  16
ATOM     16  C   UNL     1       1.184   2.237   0.000  1.00  0.00     0.183 C 
ATOM     17  C   UNL     1      -0.059   3.077   0.000  1.00  0.00     0.053 C 
BRANCH  16  18
ATOM     18  O   UNL     1       2.533   2.894   0.000  1.00  0.00    -0.462 OA
BRANCH  18  19
ATOM     19  C   UNL     1       2.639   4.390   0.000  1.00  0.00     0.302 C 
ATOM     20  C   UNL     1       3.987   5.047   0.000  1.00  0.00     0.139 C 
ATOM     21  O   UNL     1       1.396   5.230   0.000  1.00  0.00    -0.253 OA
ENDBRANCH  18  19
ENDBRANCH  16  18
ENDBRANCH   5  16
BRANCH   4  22
ATOM     22  O   UNL     1      -1.513   0.924   0.000  1.00  0.00    -0.310 OA
BRANCH  22  23
ATOM     23  C   UNL     1      -2.862   0.268   0.000  1.00  0.00     0.286 C 
ATOM     24  O   UNL     1      -4.105   1.108   0.000  1.00  0.00    -0.341 OA
ATOM     25  C   UNL     1      -2.968  -1.228   0.000  1.00  0.00     0.202 C 
ATOM     26  C   UNL     1      -5.454   0.451   0.000  1.00  0.00     0.178 C 
ATOM     27  C   UNL     1      -4.316  -1.885   0.000  1.00  0.00     0.179 C 
ATOM     28  C   UNL     1      -5.559  -1.045   0.000  1.00  0.00     0.177 C 
BRANCH  25  29
ATOM     29  O   UNL     1      -1.725  -2.068   0.000  1.00  0.00    -0.385 OA
ATOM     30  H   UNL     1       0.000   0.000   0.000  1.00  0.00     0.211 HD
ENDBRANCH  25  29
BRANCH  26  31
ATOM     31  C   UNL     1      -6.696   1.291   0.000  1.00  0.00     0.191 C 
BRANCH  31  32
ATOM     32  O   UNL     1      -6.591   2.787   0.000  1.00  0.00    -0.394 OA
ATOM     33  H   UNL     1       0.000   0.000   0.000  1.00  0.00     0.210 HD
ENDBRANCH  31  32
ENDBRANCH  26  31
BRANCH  27  34
ATOM     34  O   UNL     1      -4.422  -3.381   0.000  1.00  0.00    -0.387 OA
ATOM     35  H   UNL     1       0.000   0.000   0.000  1.00  0.00     0.211 HD
ENDBRANCH  27  34
BRANCH  28  36
ATOM     36  O   UNL     1      -6.908  -1.702   0.000  1.00  0.00    -0.387 OA
ATOM     37  H   UNL     1       0.000   0.000   0.000  1.00  0.00     0.211 HD
ENDBRANCH  28  36
ENDBRANCH  22  23
ENDBRANCH   4  22
TORSDOF 15
