REMARK SMILES OCCc1ccc(O)cc1
REMARK SMILES IDX 3 1 2 2 1 3 4 5 5 6 10 7 6 8 9 9 7 10 8 11
REMARK H PARENT 1 4 8 12
ROOT
ATOM      1  C   UNL     1      -2.018  -0.637   0.000  1.00  0.00     0.063 C 
ENDROOT
BRANCH   1   2
ATOM      2  C   UNL     1      -2.991   0.503   0.000  1.00  0.00     0.161 C 
BRANCH   2   3
ATOM      3  O   UNL     1      -4.466   0.231   0.000  1.00  0.00    -0.396 OA
ATOM      4  H   UNL     1       0.000   0.000   0.000  1.00  0.00     0.210 HD
ENDBRANCH   2   3
ENDBRANCH   1   2
BRANCH   1   5
ATOM      5  C   UNL     1      -0.543  -0.365   0.000  1.00  0.00    -0.045 A 
ATOM      6  C   UNL     1      -0.042   1.049   0.000  1.00  0.00     0.007 A 
ATOM      7  C   UNL     1       0.431  -1.506   0.000  1.00  0.00     0.007 A 
ATOM      8  C   UNL     1       1.433   1.322   0.000  1.00  0.00     0.046 A 
ATOM      9  C   UNL     1       1.906  -1.233   0.000  1.00  0.00     0.046 A 
ATOM     10  C   UNL     1       2.407   0.181   0.000  1.00  0.00     0.115 A 
BRANCH  10  11
ATOM     11  O   UNL     1       3.882   0.454   0.000  1.00  0.00    -0.508 OA
ATOM     12  H   UNL     1       0.000   0.000   0.000  1.00  0.00     0.293 HD
ENDBRANCH  10  11
ENDBRANCH   1   5
TORSDOF 4
