REMARK SMILES C=C/C(C)=C\C[C@]1(C)[C@H](C)[C@@H](OC(=O)CCC)[C@H](O)[C@@]23C(=C[C@H](O)C[C@@H]12)[C@@H](OCC)O[C@H]3OC(C)=O
REMARK SMILES IDX 7 1 8 2 9 3 10 4 11 5 18 6 20 7 21 8 22 9 23 10 25 11 26 12
REMARK SMILES IDX 27 13 31 14 32 15 6 16 5 17 3 18 4 19 2 20 1 21 12 22 13 23
REMARK SMILES IDX 14 24 15 25 16 26 17 27 19 28 24 30 33 32 34 33 35 34 36 35
REMARK SMILES IDX 28 36 29 37 30 38
REMARK H PARENT 19 29 24 31
ROOT
ATOM      1  C   UNL     1       0.629  -1.509   0.000  1.00  0.00    -0.019 C 
ATOM      2  C   UNL     1       0.620  -3.009   0.000  1.00  0.00     0.012 C 
ATOM      3  C   UNL     1       1.151  -0.102   0.000  1.00  0.00     0.036 C 
ATOM      4  C   UNL     1       2.629   0.149   0.000  1.00  0.00     0.012 C 
ATOM      5  C   UNL     1       0.193   1.053   0.000  1.00  0.00     0.209 C 
ATOM      6  C   UNL     1      -1.285   0.801   0.000  1.00  0.00     0.172 C 
ATOM      7  C   UNL     1      -1.807  -0.606   0.000  1.00  0.00     0.092 C 
ATOM      8  C   UNL     1      -3.285  -0.857   0.000  1.00  0.00    -0.000 C 
ATOM      9  C   UNL     1      -3.807  -2.264   0.000  1.00  0.00     0.009 C 
ATOM     10  C   UNL     1      -2.850  -3.418   0.000  1.00  0.00     0.137 C 
ATOM     11  C   UNL     1      -1.371  -3.167   0.000  1.00  0.00     0.041 C 
ATOM     12  C   UNL     1      -0.850  -1.760   0.000  1.00  0.00     0.018 C 
ATOM     13  C   UNL     1      -2.848  -1.195   0.000  1.00  0.00     0.282 C 
ATOM     14  O   UNL     1      -2.581  -0.526   0.000  1.00  0.00    -0.308 OA
ATOM     15  C   UNL     1      -2.108  -1.069   0.000  1.00  0.00     0.326 C 
ENDROOT
BRANCH   1  16
ATOM     16  C   UNL     1       2.105  -1.778   0.000  1.00  0.00     0.035 C 
BRANCH  16  17
ATOM     17  C   UNL     1       2.609  -3.191   0.000  1.00  0.00    -0.023 C 
BRANCH  17  18
ATOM     18  C   UNL     1       4.085  -3.460   0.000  1.00  0.00    -0.056 C 
ATOM     19  C   UNL     1       4.590  -4.872   0.000  1.00  0.00     0.044 C 
BRANCH  18  20
ATOM     20  C   UNL     1       5.056  -2.317   0.000  1.00  0.00    -0.005 C 
ATOM     21  C   UNL     1       6.532  -2.586   0.000  1.00  0.00     0.009 C 
ENDBRANCH  18  20
ENDBRANCH  17  18
ENDBRANCH  16  17
ENDBRANCH   1  16
BRANCH   5  22
ATOM     22  O   UNL     1       0.715   2.459   0.000  1.00  0.00    -0.459 OA
BRANCH  22  23
ATOM     23  C   UNL     1       2.194   2.711   0.000  1.00  0.00     0.306 C 
ATOM     24  O   UNL     1       3.151   1.556   0.000  1.00  0.00    -0.252 OA
BRANCH  23  25
ATOM     25  C   UNL     1       2.715   4.117   0.000  1.00  0.00     0.122 C 
BRANCH  25  26
ATOM     26  C   UNL     1       4.194   4.369   0.000  1.00  0.00     0.008 C 
ATOM     27  C   UNL     1       4.715   5.775   0.000  1.00  0.00     0.004 C 
ENDBRANCH  25  26
ENDBRANCH  23  25
ENDBRANCH  22  23
ENDBRANCH   5  22
BRANCH   6  28
ATOM     28  O   UNL     1      -1.935   2.153   0.000  1.00  0.00    -0.388 OA
ATOM     29  H   UNL     1       0.000   0.000   0.000  1.00  0.00     0.211 HD
ENDBRANCH   6  28
BRANCH  10  30
ATOM     30  O   UNL     1      -3.371  -4.825   0.000  1.00  0.00    -0.389 OA
ATOM     31  H   UNL     1       0.000   0.000   0.000  1.00  0.00     0.211 HD
ENDBRANCH  10  30
BRANCH  15  32
ATOM     32  O   UNL     1      -0.261   1.575   0.000  1.00  0.00    -0.435 OA
BRANCH  32  33
ATOM     33  C   UNL     1      -0.199   3.074   0.000  1.00  0.00     0.304 C 
ATOM     34  C   UNL     1       1.129   3.770   0.000  1.00  0.00     0.139 C 
ATOM     35  O   UNL     1      -1.466   3.876   0.000  1.00  0.00    -0.253 OA
ENDBRANCH  32  33
ENDBRANCH  15  32
BRANCH  13  36
ATOM     36  O   UNL     1      -5.466   0.689   0.000  1.00  0.00    -0.349 OA
BRANCH  36  37
ATOM     37  C   UNL     1      -6.019   2.083   0.000  1.00  0.00     0.160 C 
ATOM     38  C   UNL     1      -7.504   2.301   0.000  1.00  0.00     0.035 C 
ENDBRANCH  36  37
ENDBRANCH  13  36
TORSDOF 14
