REMARK SMILES COC(=O)[C@]1(C)CC[C@]2(C)CC[C@]3(C)C4=Cc5c(C#N)c(C#N)cc6c5C(=CC(=O)C6=O)[C@]4(C)CC[C@@]3(C)[C@@H]2C1
REMARK SMILES IDX 5 1 6 2 7 3 8 4 9 5 10 6 11 7 12 8 13 9 14 10 15 11 16 12
REMARK SMILES IDX 17 13 18 14 21 15 24 16 25 17 26 18 27 19 28 20 29 21 30 22
REMARK SMILES IDX 31 23 32 24 33 25 34 26 35 27 36 28 37 29 38 30 39 31 40 32
REMARK SMILES IDX 3 33 4 34 2 35 1 36 19 37 20 38 22 39 23 40
REMARK H PARENT
ROOT
ATOM      1  C   UNL     1      -5.795  -0.556   0.000  1.00  0.00     0.066 C 
ATOM      2  C   UNL     1      -5.957  -2.048   0.000  1.00  0.00     0.024 C 
ATOM      3  C   UNL     1      -6.153   0.900   0.000  1.00  0.00     0.019 C 
ATOM      4  C   UNL     1      -5.071   1.939   0.000  1.00  0.00     0.008 C 
ATOM      5  C   UNL     1      -3.630   1.520   0.000  1.00  0.00    -0.029 C 
ATOM      6  C   UNL     1      -3.988   2.977   0.000  1.00  0.00     0.011 C 
ATOM      7  C   UNL     1      -2.547   2.558   0.000  1.00  0.00     0.008 C 
ATOM      8  C   UNL     1      -1.107   2.140   0.000  1.00  0.00     0.012 C 
ATOM      9  C   UNL     1      -0.749   0.683   0.000  1.00  0.00    -0.005 C 
ATOM     10  C   UNL     1       0.333   1.721   0.000  1.00  0.00     0.017 C 
ATOM     11  C   UNL     1       0.691   0.265   0.000  1.00  0.00    -0.053 C 
ATOM     12  C   UNL     1       1.774   1.303   0.000  1.00  0.00     0.011 C 
ATOM     13  C   UNL     1       3.214   0.884   0.000  1.00  0.00     0.002 A 
ATOM     14  C   UNL     1       4.297   1.923   0.000  1.00  0.00     0.078 A 
ATOM     15  C   UNL     1       5.737   1.504   0.000  1.00  0.00     0.071 A 
ATOM     16  C   UNL     1       6.095   0.048   0.000  1.00  0.00     0.033 A 
ATOM     17  C   UNL     1       5.013  -0.991   0.000  1.00  0.00     0.036 A 
ATOM     18  C   UNL     1       3.572  -0.572   0.000  1.00  0.00    -0.001 A 
ATOM     19  C   UNL     1       2.490  -1.611   0.000  1.00  0.00    -0.025 C 
ATOM     20  C   UNL     1       2.847  -3.067   0.000  1.00  0.00     0.061 C 
ATOM     21  C   UNL     1       4.288  -3.486   0.000  1.00  0.00     0.226 C 
ATOM     22  O   UNL     1       4.646  -4.942   0.000  1.00  0.00    -0.286 OA
ATOM     23  C   UNL     1       5.370  -2.447   0.000  1.00  0.00     0.233 C 
ATOM     24  O   UNL     1       6.811  -2.866   0.000  1.00  0.00    -0.285 OA
ATOM     25  C   UNL     1       1.049  -1.192   0.000  1.00  0.00     0.015 C 
ATOM     26  C   UNL     1       1.407  -2.649   0.000  1.00  0.00     0.021 C 
ATOM     27  C   UNL     1      -0.034  -2.230   0.000  1.00  0.00     0.016 C 
ATOM     28  C   UNL     1      -1.474  -1.812   0.000  1.00  0.00     0.009 C 
ATOM     29  C   UNL     1      -1.832  -0.355   0.000  1.00  0.00    -0.020 C 
ATOM     30  C   UNL     1      -2.914  -1.393   0.000  1.00  0.00     0.012 C 
ATOM     31  C   UNL     1      -3.272   0.063   0.000  1.00  0.00     0.003 C 
ATOM     32  C   UNL     1      -4.355  -0.975   0.000  1.00  0.00     0.023 C 
ENDROOT
BRANCH   1  33
ATOM     33  C   UNL     1      -7.292  -0.656   0.000  1.00  0.00     0.311 C 
ATOM     34  O   UNL     1      -7.954  -2.002   0.000  1.00  0.00    -0.252 OA
BRANCH  33  35
ATOM     35  O   UNL     1      -8.127   0.591   0.000  1.00  0.00    -0.469 OA
ATOM     36  C   UNL     1      -9.623   0.491   0.000  1.00  0.00     0.282 C 
ENDBRANCH  33  35
ENDBRANCH   1  33
BRANCH  14  37
ATOM     37  C   UNL     1       3.939   3.379   0.000  1.00  0.00     0.101 C 
ATOM     38  N   UNL     1       3.581   4.836   0.000  1.00  0.00    -0.192 NA
ENDBRANCH  14  37
BRANCH  15  39
ATOM     39  C   UNL     1       6.820   2.542   0.000  1.00  0.00     0.101 C 
ATOM     40  N   UNL     1       7.903   3.581   0.000  1.00  0.00    -0.192 NA
ENDBRANCH  15  39
TORSDOF 4
