REMARK SMILES COC(=CC(=O)c1ccc2occc2c1OC)c1ccccc1
REMARK SMILES IDX 4 1 3 2 2 3 1 4 18 5 19 6 23 7 20 8 22 9 21 10 5 11 6 12
REMARK SMILES IDX 7 13 8 14 15 15 9 16 14 17 10 18 13 19 11 20 12 21 16 22
REMARK SMILES IDX 17 23
REMARK H PARENT
ROOT
ATOM      1  C   UNL     1       1.067  -0.167   0.000  1.00  0.00     0.099 C 
ENDROOT
BRANCH   1   2
ATOM      2  C   UNL     1       2.391   0.537   0.000  1.00  0.00     0.129 C 
BRANCH   2   3
ATOM      3  O   UNL     1       2.442   2.037   0.000  1.00  0.00    -0.496 OA
ATOM      4  C   UNL     1       3.766   2.741   0.000  1.00  0.00     0.278 C 
ENDBRANCH   2   3
BRANCH   2   5
ATOM      5  C   UNL     1       3.663  -0.257   0.000  1.00  0.00     0.017 A 
ATOM      6  C   UNL     1       3.611  -1.756   0.000  1.00  0.00     0.012 A 
ATOM      7  C   UNL     1       4.987   0.448   0.000  1.00  0.00     0.012 A 
ATOM      8  C   UNL     1       4.884  -2.550   0.000  1.00  0.00     0.001 A 
ATOM      9  C   UNL     1       6.260  -0.346   0.000  1.00  0.00     0.001 A 
ATOM     10  C   UNL     1       6.208  -1.845   0.000  1.00  0.00     0.000 A 
ENDBRANCH   2   5
ENDBRANCH   1   2
BRANCH   1  11
ATOM     11  C   UNL     1      -0.206   0.627   0.000  1.00  0.00     0.193 C 
ATOM     12  O   UNL     1      -0.154   2.126   0.000  1.00  0.00    -0.289 OA
BRANCH  11  13
ATOM     13  C   UNL     1      -1.530  -0.078   0.000  1.00  0.00     0.065 A 
ATOM     14  C   UNL     1      -1.582  -1.577   0.000  1.00  0.00     0.020 A 
ATOM     15  C   UNL     1      -2.803   0.717   0.000  1.00  0.00     0.141 A 
ATOM     16  C   UNL     1      -2.906  -2.282   0.000  1.00  0.00     0.049 A 
ATOM     17  C   UNL     1      -4.127   0.012   0.000  1.00  0.00     0.063 A 
ATOM     18  C   UNL     1      -4.178  -1.487   0.000  1.00  0.00     0.137 A 
ATOM     19  C   UNL     1      -5.536   0.524   0.000  1.00  0.00     0.054 A 
ATOM     20  O   UNL     1      -5.620  -1.901   0.000  1.00  0.00    -0.464 OA
ATOM     21  C   UNL     1      -6.459  -0.658   0.000  1.00  0.00     0.196 A 
BRANCH  15  22
ATOM     22  O   UNL     1      -2.751   2.216   0.000  1.00  0.00    -0.495 OA
ATOM     23  C   UNL     1      -1.427   2.920   0.000  1.00  0.00     0.278 C 
ENDBRANCH  15  22
ENDBRANCH  11  13
ENDBRANCH   1  11
TORSDOF 6
