REMARK SMILES C=CC[C@@]12C=C(OC)C(=O)[C@@H]([C@H](c3ccc(OC)c(OC)c3)[C@H]1C)[C@@H]2O
REMARK SMILES IDX 4 1 5 2 6 3 9 4 10 5 11 6 12 7 23 8 24 9 25 10 3 11 2 12
REMARK SMILES IDX 1 13 26 14 7 16 8 17 13 18 14 19 22 20 15 21 19 22 16 23
REMARK SMILES IDX 20 24 21 25 17 26 18 27
REMARK H PARENT 26 15
ROOT
ATOM      1  C   UNL     1       2.404  -0.731   0.000  1.00  0.00     0.026 C 
ATOM      2  C   UNL     1       3.679   0.059   0.000  1.00  0.00     0.033 C 
ATOM      3  C   UNL     1       3.632   1.559   0.000  1.00  0.00     0.158 C 
ATOM      4  C   UNL     1       2.310   2.268   0.000  1.00  0.00     0.203 C 
ATOM      5  O   UNL     1       2.263   3.767   0.000  1.00  0.00    -0.290 OA
ATOM      6  C   UNL     1       1.035   1.477   0.000  1.00  0.00     0.102 C 
ATOM      7  C   UNL     1       0.067   0.332   0.000  1.00  0.00     0.037 C 
ATOM      8  C   UNL     1       0.857  -0.943   0.000  1.00  0.00     0.007 C 
ATOM      9  C   UNL     1       0.290  -2.332   0.000  1.00  0.00     0.009 C 
ATOM     10  C   UNL     1       1.082  -0.022   0.000  1.00  0.00     0.136 C 
ENDROOT
BRANCH   1  11
ATOM     11  C   UNL     1       2.451  -2.230   0.000  1.00  0.00     0.041 C 
BRANCH  11  12
ATOM     12  C   UNL     1       3.773  -2.939   0.000  1.00  0.00    -0.034 C 
ATOM     13  C   UNL     1       3.820  -4.438   0.000  1.00  0.00     0.004 C 
ENDBRANCH  11  12
ENDBRANCH   1  11
BRANCH  10  14
ATOM     14  O   UNL     1      -0.193  -0.812   0.000  1.00  0.00    -0.391 OA
ATOM     15  H   UNL     1       0.000   0.000   0.000  1.00  0.00     0.211 HD
ENDBRANCH  10  14
BRANCH   3  16
ATOM     16  O   UNL     1       4.907   2.349   0.000  1.00  0.00    -0.493 OA
ATOM     17  C   UNL     1       6.229   1.640   0.000  1.00  0.00     0.278 C 
ENDBRANCH   3  16
BRANCH   7  18
ATOM     18  C   UNL     1      -1.429   0.442   0.000  1.00  0.00    -0.040 A 
ATOM     19  C   UNL     1      -2.082   1.792   0.000  1.00  0.00     0.008 A 
ATOM     20  C   UNL     1      -2.272  -0.799   0.000  1.00  0.00     0.054 A 
ATOM     21  C   UNL     1      -3.578   1.903   0.000  1.00  0.00     0.051 A 
ATOM     22  C   UNL     1      -3.768  -0.689   0.000  1.00  0.00     0.160 A 
ATOM     23  C   UNL     1      -4.421   0.662   0.000  1.00  0.00     0.160 A 
BRANCH  22  24
ATOM     24  O   UNL     1      -4.612  -1.929   0.000  1.00  0.00    -0.493 OA
ATOM     25  C   UNL     1      -3.959  -3.280   0.000  1.00  0.00     0.278 C 
ENDBRANCH  22  24
BRANCH  23  26
ATOM     26  O   UNL     1      -5.917   0.772   0.000  1.00  0.00    -0.493 OA
ATOM     27  C   UNL     1      -6.570   2.123   0.000  1.00  0.00     0.278 C 
ENDBRANCH  23  26
ENDBRANCH   7  18
TORSDOF 7
