REMARK SMILES O=c1c2ccccc2nc2n1CCc1c-2[nH]c2ccccc12
REMARK SMILES IDX 1 1 2 2 3 3 4 4 5 5 6 6 7 7 8 8 9 9 10 10 15 11 14 12 13 13
REMARK SMILES IDX 12 14 11 15 22 16 21 17 20 18 19 19 18 20 17 21 16 22
REMARK H PARENT 16 23
ROOT
ATOM      1  O   UNL     1       3.042  -2.876   0.000  1.00  0.00    -0.269 OA
ATOM      2  C   UNL     1       2.479  -1.486   0.000  1.00  0.00     0.261 A 
ATOM      3  C   UNL     1       3.401  -0.303   0.000  1.00  0.00     0.066 A 
ATOM      4  C   UNL     1       4.887  -0.510   0.000  1.00  0.00     0.016 A 
ATOM      5  C   UNL     1       5.809   0.673   0.000  1.00  0.00     0.001 A 
ATOM      6  C   UNL     1       5.246   2.063   0.000  1.00  0.00     0.002 A 
ATOM      7  C   UNL     1       3.760   2.270   0.000  1.00  0.00     0.029 A 
ATOM      8  C   UNL     1       2.838   1.087   0.000  1.00  0.00     0.078 A 
ATOM      9  N   UNL     1       1.352   1.295   0.000  1.00  0.00    -0.228 NA
ATOM     10  C   UNL     1       0.430   0.112   0.000  1.00  0.00     0.160 A 
ATOM     11  C   UNL     1      -1.056   0.319   0.000  1.00  0.00     0.086 A 
ATOM     12  C   UNL     1      -1.978  -0.864   0.000  1.00  0.00    -0.010 A 
ATOM     13  C   UNL     1      -1.415  -2.254   0.000  1.00  0.00     0.060 C 
ATOM     14  C   UNL     1       0.071  -2.461   0.000  1.00  0.00     0.132 C 
ATOM     15  N   UNL     1       0.993  -1.278   0.000  1.00  0.00    -0.291 N 
ATOM     16  C   UNL     1      -3.388  -0.352   0.000  1.00  0.00     0.003 A 
ATOM     17  C   UNL     1      -4.712  -1.057   0.000  1.00  0.00     0.010 A 
ATOM     18  C   UNL     1      -5.985  -0.264   0.000  1.00  0.00     0.001 A 
ATOM     19  C   UNL     1      -5.934   1.235   0.000  1.00  0.00     0.002 A 
ATOM     20  C   UNL     1      -4.610   1.941   0.000  1.00  0.00     0.027 A 
ATOM     21  C   UNL     1      -3.337   1.147   0.000  1.00  0.00     0.046 A 
ATOM     22  N   UNL     1      -1.896   1.562   0.000  1.00  0.00    -0.352 N 
ATOM     23  H   UNL     1       0.000   0.000   0.000  1.00  0.00     0.167 HD
ENDROOT
TORSDOF 0
