REMARK SMILES COc1cc(O)c(C(=O)C=Cc2ccccc2)c(OC)c1
REMARK SMILES IDX 8 1 9 2 7 3 3 4 4 5 21 6 5 7 18 8 2 9 1 10 6 11 19 13 20 14
REMARK SMILES IDX 10 15 11 16 12 17 13 18 17 19 14 20 16 21 15 22
REMARK H PARENT 6 12
ROOT
ATOM      1  C   UNL     1      -0.198   1.365   0.000  1.00  0.00     0.193 C 
ATOM      2  O   UNL     1      -0.144   2.864   0.000  1.00  0.00    -0.289 OA
ENDROOT
BRANCH   1   3
ATOM      3  C   UNL     1      -1.524   0.663   0.000  1.00  0.00     0.106 A 
ATOM      4  C   UNL     1      -4.174  -0.743   0.000  1.00  0.00     0.126 A 
ATOM      5  C   UNL     1      -4.120   0.756   0.000  1.00  0.00     0.093 A 
ATOM      6  C   UNL     1      -2.903  -1.539   0.000  1.00  0.00     0.093 A 
ATOM      7  C   UNL     1      -2.795   1.459   0.000  1.00  0.00     0.134 A 
ATOM      8  C   UNL     1      -1.578  -0.837   0.000  1.00  0.00     0.137 A 
BRANCH   4   9
ATOM      9  O   UNL     1      -5.499  -1.445   0.000  1.00  0.00    -0.496 OA
ATOM     10  C   UNL     1      -6.771  -0.649   0.000  1.00  0.00     0.278 C 
ENDBRANCH   4   9
BRANCH   7  11
ATOM     11  O   UNL     1      -2.740   2.958   0.000  1.00  0.00    -0.507 OA
ATOM     12  H   UNL     1       0.000   0.000   0.000  1.00  0.00     0.293 HD
ENDBRANCH   7  11
BRANCH   8  13
ATOM     13  O   UNL     1      -0.307  -1.633   0.000  1.00  0.00    -0.496 OA
ATOM     14  C   UNL     1      -0.361  -3.132   0.000  1.00  0.00     0.278 C 
ENDBRANCH   8  13
ENDBRANCH   1   3
BRANCH   1  15
ATOM     15  C   UNL     1       1.073   0.569   0.000  1.00  0.00     0.053 C 
BRANCH  15  16
ATOM     16  C   UNL     1       2.398   1.271   0.000  1.00  0.00     0.012 C 
BRANCH  16  17
ATOM     17  C   UNL     1       3.669   0.475   0.000  1.00  0.00    -0.026 A 
ATOM     18  C   UNL     1       3.615  -1.024   0.000  1.00  0.00     0.008 A 
ATOM     19  C   UNL     1       4.995   1.178   0.000  1.00  0.00     0.008 A 
ATOM     20  C   UNL     1       4.886  -1.820   0.000  1.00  0.00     0.001 A 
ATOM     21  C   UNL     1       6.266   0.381   0.000  1.00  0.00     0.001 A 
ATOM     22  C   UNL     1       6.212  -1.118   0.000  1.00  0.00     0.000 A 
ENDBRANCH  16  17
ENDBRANCH  15  16
ENDBRANCH   1  15
TORSDOF 7
