REMARK SMILES CC(=O)O[C@@]12CC[C@]3(CO1)[C@@H]1CCC4=C(OCC4=O)[C@@H]1C[C@H]1OC(=O)[C@]2(C)[C@H]13
REMARK SMILES IDX 4 1 2 2 1 3 3 4 5 5 6 6 10 7 26 8 7 9 9 10 24 11 28 12 8 13
REMARK SMILES IDX 23 14 22 15 11 16 21 17 12 18 20 19 13 20 15 21 14 22 16 23
REMARK SMILES IDX 18 24 17 25 27 26 25 27 19 28
REMARK H PARENT
ROOT
ATOM      1  O   UNL     1      -4.521  -0.303   0.000  1.00  0.00    -0.432 OA
ENDROOT
BRANCH   1   2
ATOM      2  C   UNL     1      -5.349  -1.553   0.000  1.00  0.00     0.305 C 
ATOM      3  C   UNL     1      -6.846  -1.461   0.000  1.00  0.00     0.139 C 
ATOM      4  O   UNL     1      -4.680  -2.896   0.000  1.00  0.00    -0.253 OA
ENDBRANCH   1   2
BRANCH   1   5
ATOM      5  C   UNL     1      -3.024  -0.395   0.000  1.00  0.00     0.230 C 
ATOM      6  C   UNL     1      -2.355  -1.738   0.000  1.00  0.00     0.082 C 
ATOM      7  O   UNL     1      -2.200  -0.395   0.000  1.00  0.00    -0.339 OA
ATOM      8  C   UNL     1      -2.195   0.856   0.000  1.00  0.00     0.137 C 
ATOM      9  C   UNL     1      -0.858  -1.830   0.000  1.00  0.00     0.017 C 
ATOM     10  C   UNL     1      -0.847  -0.478   0.000  1.00  0.00     0.172 C 
ATOM     11  C   UNL     1      -2.263   2.416   0.000  1.00  0.00     0.319 C 
ATOM     12  C   UNL     1      -0.698   0.764   0.000  1.00  0.00     0.063 C 
ATOM     13  C   UNL     1      -0.029  -0.579   0.000  1.00  0.00     0.005 C 
ATOM     14  O   UNL     1      -0.921   3.084   0.000  1.00  0.00    -0.461 OA
ATOM     15  C   UNL     1       0.130   2.014   0.000  1.00  0.00     0.182 C 
ATOM     16  C   UNL     1       1.468  -0.671   0.000  1.00  0.00     0.009 C 
ATOM     17  C   UNL     1       1.627   1.922   0.000  1.00  0.00     0.057 C 
ATOM     18  C   UNL     1       2.137  -2.014   0.000  1.00  0.00     0.010 C 
ATOM     19  C   UNL     1       2.296   0.580   0.000  1.00  0.00     0.063 C 
ATOM     20  C   UNL     1       3.634  -2.106   0.000  1.00  0.00     0.043 C 
ATOM     21  C   UNL     1       3.793   0.487   0.000  1.00  0.00     0.107 C 
ATOM     22  C   UNL     1       4.462  -0.855   0.000  1.00  0.00     0.037 C 
ATOM     23  O   UNL     1       4.864   1.538   0.000  1.00  0.00    -0.489 OA
ATOM     24  C   UNL     1       5.946  -0.634   0.000  1.00  0.00     0.199 C 
ATOM     25  C   UNL     1       6.194   0.845   0.000  1.00  0.00     0.309 C 
ATOM     26  C   UNL     1      -3.169   1.997   0.000  1.00  0.00     0.031 C 
ATOM     27  O   UNL     1      -3.594   3.109   0.000  1.00  0.00    -0.251 OA
ATOM     28  O   UNL     1       6.997  -1.704   0.000  1.00  0.00    -0.291 OA
ENDBRANCH   1   5
TORSDOF 2
