REMARK SMILES CCCCCCCCCCCCOC(=O)c1cc(O)c(O)c(O)c1
REMARK SMILES IDX 9 1 8 2 7 3 6 4 5 5 4 6 3 7 2 8 1 9 10 10 11 11 12 12 13 13
REMARK SMILES IDX 14 14 15 15 16 16 17 17 24 18 18 19 22 20 20 21 19 22 23 24
REMARK SMILES IDX 21 26
REMARK H PARENT 19 23 23 25 21 27
ROOT
ATOM      1  C   UNL     1      -2.760   0.099   0.000  1.00  0.00     0.000 C 
ENDROOT
BRANCH   1   2
ATOM      2  C   UNL     1      -4.109  -0.558   0.000  1.00  0.00     0.000 C 
BRANCH   2   3
ATOM      3  C   UNL     1      -5.352   0.281   0.000  1.00  0.00     0.000 C 
BRANCH   3   4
ATOM      4  C   UNL     1      -6.700  -0.377   0.000  1.00  0.00    -0.000 C 
BRANCH   4   5
ATOM      5  C   UNL     1      -7.944   0.462   0.000  1.00  0.00    -0.000 C 
BRANCH   5   6
ATOM      6  C   UNL     1      -9.292  -0.195   0.000  1.00  0.00    -0.000 C 
BRANCH   6   7
ATOM      7  C   UNL     1     -10.536   0.643   0.000  1.00  0.00    -0.000 C 
BRANCH   7   8
ATOM      8  C   UNL     1     -11.884  -0.014   0.000  1.00  0.00    -0.003 C 
ATOM      9  C   UNL     1     -13.127   0.825   0.000  1.00  0.00     0.004 C 
ENDBRANCH   7   8
ENDBRANCH   6   7
ENDBRANCH   5   6
ENDBRANCH   4   5
ENDBRANCH   3   4
ENDBRANCH   2   3
ENDBRANCH   1   2
BRANCH   1  10
ATOM     10  C   UNL     1      -1.517  -0.740   0.000  1.00  0.00     0.003 C 
BRANCH  10  11
ATOM     11  C   UNL     1      -0.169  -0.082   0.000  1.00  0.00     0.042 C 
BRANCH  11  12
ATOM     12  C   UNL     1       1.075  -0.921   0.000  1.00  0.00     0.233 C 
BRANCH  12  13
ATOM     13  O   UNL     1       2.423  -0.264   0.000  1.00  0.00    -0.462 OA
BRANCH  13  14
ATOM     14  C   UNL     1       3.667  -1.103   0.000  1.00  0.00     0.338 C 
ATOM     15  O   UNL     1       3.562  -2.599   0.000  1.00  0.00    -0.246 OA
BRANCH  14  16
ATOM     16  C   UNL     1       5.015  -0.445   0.000  1.00  0.00     0.067 A 
ATOM     17  C   UNL     1       5.120   1.051   0.000  1.00  0.00     0.066 A 
ATOM     18  C   UNL     1       6.258  -1.284   0.000  1.00  0.00     0.066 A 
ATOM     19  C   UNL     1       6.468   1.709   0.000  1.00  0.00     0.162 A 
ATOM     20  C   UNL     1       7.607  -0.626   0.000  1.00  0.00     0.162 A 
ATOM     21  C   UNL     1       7.711   0.870   0.000  1.00  0.00     0.200 A 
BRANCH  19  22
ATOM     22  O   UNL     1       6.573   3.205   0.000  1.00  0.00    -0.504 OA
ATOM     23  H   UNL     1       0.000   0.000   0.000  1.00  0.00     0.293 HD
ENDBRANCH  19  22
BRANCH  20  24
ATOM     24  O   UNL     1       8.850  -1.465   0.000  1.00  0.00    -0.504 OA
ATOM     25  H   UNL     1       0.000   0.000   0.000  1.00  0.00     0.293 HD
ENDBRANCH  20  24
BRANCH  21  26
ATOM     26  O   UNL     1       9.060   1.527   0.000  1.00  0.00    -0.502 OA
ATOM     27  H   UNL     1       0.000   0.000   0.000  1.00  0.00     0.293 HD
ENDBRANCH  21  26
ENDBRANCH  14  16
ENDBRANCH  13  14
ENDBRANCH  12  13
ENDBRANCH  11  12
ENDBRANCH  10  11
ENDBRANCH   1  10
TORSDOF 16
