REMARK SMILES CC(O)CCCCCCCCCC[C@H]1CC[C@@H](O)[C@@H](C)N1
REMARK SMILES IDX 8 1 7 2 6 3 5 4 4 5 2 6 1 7 3 8 9 10 10 11 11 12 12 13 13 14
REMARK SMILES IDX 14 15 15 16 21 17 16 18 19 19 17 20 20 22 18 23
REMARK H PARENT 3 9 21 21 18 24
ROOT
ATOM      1  C   UNL     1      -3.016   0.302   0.000  1.00  0.00     0.000 C 
ENDROOT
BRANCH   1   2
ATOM      2  C   UNL     1      -4.376  -0.331   0.000  1.00  0.00     0.000 C 
BRANCH   2   3
ATOM      3  C   UNL     1      -5.604   0.530   0.000  1.00  0.00     0.000 C 
BRANCH   3   4
ATOM      4  C   UNL     1      -6.964  -0.103   0.000  1.00  0.00     0.003 C 
BRANCH   4   5
ATOM      5  C   UNL     1      -8.192   0.758   0.000  1.00  0.00     0.031 C 
BRANCH   5   6
ATOM      6  C   UNL     1      -9.552   0.125   0.000  1.00  0.00     0.111 C 
ATOM      7  C   UNL     1     -10.780   0.987   0.000  1.00  0.00     0.038 C 
BRANCH   6   8
ATOM      8  O   UNL     1      -9.684  -1.369   0.000  1.00  0.00    -0.393 OA
ATOM      9  H   UNL     1       0.000   0.000   0.000  1.00  0.00     0.210 HD
ENDBRANCH   6   8
ENDBRANCH   5   6
ENDBRANCH   4   5
ENDBRANCH   3   4
ENDBRANCH   2   3
ENDBRANCH   1   2
BRANCH   1  10
ATOM     10  C   UNL     1      -1.788  -0.559   0.000  1.00  0.00     0.000 C 
BRANCH  10  11
ATOM     11  C   UNL     1      -0.428   0.074   0.000  1.00  0.00     0.000 C 
BRANCH  11  12
ATOM     12  C   UNL     1       0.800  -0.788   0.000  1.00  0.00     0.000 C 
BRANCH  12  13
ATOM     13  C   UNL     1       2.160  -0.155   0.000  1.00  0.00     0.002 C 
BRANCH  13  14
ATOM     14  C   UNL     1       3.388  -1.016   0.000  1.00  0.00     0.019 C 
BRANCH  14  15
ATOM     15  C   UNL     1       4.748  -0.383   0.000  1.00  0.00     0.054 C 
ATOM     16  C   UNL     1       4.880   1.111   0.000  1.00  0.00     0.021 C 
ATOM     17  N   UNL     1       5.976  -1.244   0.000  1.00  0.00    -0.309 NA
ATOM     18  C   UNL     1       6.239   1.744   0.000  1.00  0.00     0.035 C 
ATOM     19  C   UNL     1       7.336  -0.611   0.000  1.00  0.00     0.079 C 
ATOM     20  C   UNL     1       7.468   0.883   0.000  1.00  0.00     0.131 C 
ATOM     21  H   UNL     1       0.000   0.000   0.000  1.00  0.00     0.123 HD
ATOM     22  C   UNL     1       8.564  -1.472   0.000  1.00  0.00     0.027 C 
BRANCH  20  23
ATOM     23  O   UNL     1       8.828   1.516   0.000  1.00  0.00    -0.392 OA
ATOM     24  H   UNL     1       0.000   0.000   0.000  1.00  0.00     0.211 HD
ENDBRANCH  20  23
ENDBRANCH  14  15
ENDBRANCH  13  14
ENDBRANCH  12  13
ENDBRANCH  11  12
ENDBRANCH  10  11
ENDBRANCH   1  10
TORSDOF 13
