REMARK SMILES CC1(C)[C@@H](O)CC[C@]2(C)[C@H]3CC[C@@H]4[C@@H]([C@]5(C)CCC(=O)O5)CC[C@@]4(C)[C@]3(C)CC[C@@H]12
REMARK SMILES IDX 1 1 2 2 3 3 4 4 6 5 7 6 8 7 9 8 10 9 11 10 12 11 13 12 14 13
REMARK SMILES IDX 22 14 23 15 24 16 25 17 26 18 27 19 28 20 29 21 30 22 5 23
REMARK SMILES IDX 15 25 17 26 21 27 18 28 19 29 16 30 20 31
REMARK H PARENT 5 24
ROOT
ATOM      1  C   UNL     1      -4.845  -1.948   0.000  1.00  0.00     0.014 C 
ATOM      2  C   UNL     1      -4.979  -0.454   0.000  1.00  0.00    -0.006 C 
ATOM      3  C   UNL     1      -6.427  -0.845   0.000  1.00  0.00     0.014 C 
ATOM      4  C   UNL     1      -5.617   0.904   0.000  1.00  0.00     0.120 C 
ATOM      5  C   UNL     1      -4.760   2.135   0.000  1.00  0.00     0.033 C 
ATOM      6  C   UNL     1      -3.265   2.008   0.000  1.00  0.00     0.010 C 
ATOM      7  C   UNL     1      -2.628   0.650   0.000  1.00  0.00    -0.026 C 
ATOM      8  C   UNL     1      -1.770   1.881   0.000  1.00  0.00     0.012 C 
ATOM      9  C   UNL     1      -1.133   0.523   0.000  1.00  0.00     0.002 C 
ATOM     10  C   UNL     1      -0.276   1.754   0.000  1.00  0.00     0.005 C 
ATOM     11  C   UNL     1       1.219   1.627   0.000  1.00  0.00     0.005 C 
ATOM     12  C   UNL     1       1.856   0.269   0.000  1.00  0.00     0.002 C 
ATOM     13  C   UNL     1       3.292  -0.166   0.000  1.00  0.00     0.037 C 
ATOM     14  C   UNL     1       3.322  -1.665   0.000  1.00  0.00     0.008 C 
ATOM     15  C   UNL     1       1.905  -2.157   0.000  1.00  0.00     0.008 C 
ATOM     16  C   UNL     1       0.999  -0.962   0.000  1.00  0.00    -0.024 C 
ATOM     17  C   UNL     1       0.275  -2.275   0.000  1.00  0.00     0.012 C 
ATOM     18  C   UNL     1      -0.496  -0.835   0.000  1.00  0.00    -0.024 C 
ATOM     19  C   UNL     1      -1.990  -0.708   0.000  1.00  0.00     0.012 C 
ATOM     20  C   UNL     1      -1.353  -2.065   0.000  1.00  0.00     0.008 C 
ATOM     21  C   UNL     1      -2.848  -1.938   0.000  1.00  0.00     0.005 C 
ATOM     22  C   UNL     1      -3.485  -0.581   0.000  1.00  0.00     0.003 C 
ENDROOT
BRANCH   4  23
ATOM     23  O   UNL     1      -7.111   1.031   0.000  1.00  0.00    -0.393 OA
ATOM     24  H   UNL     1       0.000   0.000   0.000  1.00  0.00     0.210 HD
ENDBRANCH   4  23
BRANCH  13  25
ATOM     25  C   UNL     1       4.487   0.740   0.000  1.00  0.00     0.113 C 
ATOM     26  C   UNL     1       5.469   1.875   0.000  1.00  0.00     0.060 C 
ATOM     27  O   UNL     1       5.263  -0.544   0.000  1.00  0.00    -0.459 OA
ATOM     28  C   UNL     1       6.851   1.292   0.000  1.00  0.00     0.127 C 
ATOM     29  C   UNL     1       6.724  -0.203   0.000  1.00  0.00     0.306 C 
ATOM     30  C   UNL     1       3.462   1.835   0.000  1.00  0.00     0.057 C 
ATOM     31  O   UNL     1       7.859  -1.184   0.000  1.00  0.00    -0.252 OA
ENDBRANCH  13  25
TORSDOF 2
