REMARK SMILES COc1c(CC=C(C)C)cc2ccc(=O)oc2c1OCC=C(C)C
REMARK SMILES IDX 3 1 4 2 10 3 11 4 12 5 13 6 14 7 15 8 16 9 17 10 18 11 2 12
REMARK SMILES IDX 1 13 5 14 6 15 7 16 8 17 9 18 19 19 20 20 21 21 22 22 23 23
REMARK SMILES IDX 24 24
REMARK H PARENT
ROOT
ATOM      1  C   UNL     1      -1.373   0.406   0.000  1.00  0.00     0.168 A 
ATOM      2  C   UNL     1      -2.246  -0.813   0.000  1.00  0.00     0.003 A 
ATOM      3  C   UNL     1      -1.627  -2.179   0.000  1.00  0.00     0.020 A 
ATOM      4  C   UNL     1      -0.134  -2.325   0.000  1.00  0.00     0.022 A 
ATOM      5  C   UNL     1       0.486  -3.692   0.000  1.00  0.00     0.019 A 
ATOM      6  C   UNL     1       1.979  -3.838   0.000  1.00  0.00     0.094 A 
ATOM      7  C   UNL     1       2.852  -2.618   0.000  1.00  0.00     0.336 A 
ATOM      8  O   UNL     1       4.345  -2.764   0.000  1.00  0.00    -0.246 OA
ATOM      9  O   UNL     1       2.232  -1.252   0.000  1.00  0.00    -0.419 OA
ATOM     10  C   UNL     1       0.740  -1.106   0.000  1.00  0.00     0.184 A 
ATOM     11  C   UNL     1       0.120   0.260   0.000  1.00  0.00     0.205 A 
ENDROOT
BRANCH   1  12
ATOM     12  O   UNL     1      -1.993   1.772   0.000  1.00  0.00    -0.492 OA
ATOM     13  C   UNL     1      -1.120   2.992   0.000  1.00  0.00     0.278 C 
ENDBRANCH   1  12
BRANCH   2  14
ATOM     14  C   UNL     1      -3.739  -0.667   0.000  1.00  0.00     0.067 C 
BRANCH  14  15
ATOM     15  C   UNL     1      -4.359   0.699   0.000  1.00  0.00    -0.023 C 
BRANCH  15  16
ATOM     16  C   UNL     1      -5.852   0.845   0.000  1.00  0.00    -0.080 C 
ATOM     17  C   UNL     1      -6.471   2.211   0.000  1.00  0.00     0.039 C 
ATOM     18  C   UNL     1      -6.725  -0.374   0.000  1.00  0.00     0.039 C 
ENDBRANCH  15  16
ENDBRANCH  14  15
ENDBRANCH   2  14
BRANCH  11  19
ATOM     19  O   UNL     1       0.993   1.480   0.000  1.00  0.00    -0.482 OA
BRANCH  19  20
ATOM     20  C   UNL     1       2.486   1.334   0.000  1.00  0.00     0.257 C 
BRANCH  20  21
ATOM     21  C   UNL     1       3.359   2.553   0.000  1.00  0.00     0.012 C 
BRANCH  21  22
ATOM     22  C   UNL     1       4.852   2.407   0.000  1.00  0.00    -0.077 C 
ATOM     23  C   UNL     1       5.725   3.627   0.000  1.00  0.00     0.039 C 
ATOM     24  C   UNL     1       5.471   1.041   0.000  1.00  0.00     0.039 C 
ENDBRANCH  21  22
ENDBRANCH  20  21
ENDBRANCH  19  20
ENDBRANCH  11  19
TORSDOF 8
