REMARK SMILES CC1(C)C(=O)C=C[C@@]2(C)C1C[C@@H](O)[C@]1(C)C2CC[C@]2(C)C1C(=O)C[C@H]2CC(=O)CO
REMARK SMILES IDX 26 1 25 2 2 3 4 4 10 5 6 6 8 7 11 8 7 9 16 10 12 11 14 12
REMARK SMILES IDX 17 13 21 14 18 15 19 16 22 17 24 18 1 19 3 20 5 21 9 22
REMARK SMILES IDX 15 23 20 24 23 25 13 26 27 28 28 29 29 30 30 31
REMARK H PARENT 13 27 30 32
ROOT
ATOM      1  C   UNL     1       4.559   1.080   0.000  1.00  0.00     0.082 C 
ENDROOT
BRANCH   1   2
ATOM      2  C   UNL     1       3.381   0.151   0.000  1.00  0.00     0.010 C 
ATOM      3  C   UNL     1      -4.883  -0.298   0.000  1.00  0.00     0.031 C 
ATOM      4  C   UNL     1      -5.547   1.048   0.000  1.00  0.00     0.161 C 
ATOM      5  C   UNL     1      -3.386  -0.396   0.000  1.00  0.00     0.015 C 
ATOM      6  C   UNL     1      -4.714   2.295   0.000  1.00  0.00     0.044 C 
ATOM      7  C   UNL     1      -2.553   0.852   0.000  1.00  0.00    -0.007 C 
ATOM      8  C   UNL     1      -2.723  -1.741   0.000  1.00  0.00     0.038 C 
ATOM      9  C   UNL     1      -3.217   2.197   0.000  1.00  0.00    -0.016 C 
ATOM     10  C   UNL     1      -1.056   0.754   0.000  1.00  0.00     0.008 C 
ATOM     11  C   UNL     1      -1.226  -1.839   0.000  1.00  0.00     0.121 C 
ATOM     12  C   UNL     1      -0.393  -0.592   0.000  1.00  0.00     0.007 C 
ATOM     13  C   UNL     1      -0.223   2.001   0.000  1.00  0.00     0.006 C 
ATOM     14  C   UNL     1       1.104  -0.689   0.000  1.00  0.00     0.071 C 
ATOM     15  C   UNL     1       1.274   1.903   0.000  1.00  0.00     0.008 C 
ATOM     16  C   UNL     1       1.937   0.558   0.000  1.00  0.00    -0.019 C 
ATOM     17  C   UNL     1       2.033  -1.867   0.000  1.00  0.00     0.137 C 
ATOM     18  C   UNL     1       3.440  -1.348   0.000  1.00  0.00     0.080 C 
ATOM     19  C   UNL     1      -4.720  -1.789   0.000  1.00  0.00     0.020 C 
ATOM     20  C   UNL     1      -6.323  -0.718   0.000  1.00  0.00     0.020 C 
ATOM     21  O   UNL     1      -7.044   1.145   0.000  1.00  0.00    -0.294 OA
ATOM     22  C   UNL     1      -1.720   2.099   0.000  1.00  0.00     0.016 C 
ATOM     23  C   UNL     1       0.271  -1.937   0.000  1.00  0.00     0.015 C 
ATOM     24  C   UNL     1       2.896   1.711   0.000  1.00  0.00     0.012 C 
ATOM     25  O   UNL     1       1.626  -3.311   0.000  1.00  0.00    -0.299 OA
BRANCH  11  26
ATOM     26  O   UNL     1      -0.562  -3.184   0.000  1.00  0.00    -0.393 OA
ATOM     27  H   UNL     1       0.000   0.000   0.000  1.00  0.00     0.210 HD
ENDBRANCH  11  26
ENDBRANCH   1   2
BRANCH   1  28
ATOM     28  C   UNL     1       5.952   0.524   0.000  1.00  0.00     0.158 C 
ATOM     29  O   UNL     1       6.167  -0.960   0.000  1.00  0.00    -0.297 OA
BRANCH  28  30
ATOM     30  C   UNL     1       7.130   1.453   0.000  1.00  0.00     0.231 C 
BRANCH  30  31
ATOM     31  O   UNL     1       8.523   0.897   0.000  1.00  0.00    -0.389 OA
ATOM     32  H   UNL     1       0.000   0.000   0.000  1.00  0.00     0.211 HD
ENDBRANCH  30  31
ENDBRANCH  28  30
ENDBRANCH   1  28
TORSDOF 5
