REMARK SMILES CC(=O)OC[C@]12[C@H](OC(C)=O)[C@@H](O)[C@@H]3[C@@H](OC(C)=O)[C@@]14O[C@@]3(C)COC(=O)c1cccnc1C(C)C(C)C(=O)O[C@@H]([C@H](OC(C)=O)[C@@H]2OC(C)=O)[C@]4(C)O
REMARK SMILES IDX 24 1 22 2 6 3 7 4 20 5 47 6 12 7 15 8 21 9 52 10 42 11 14 12
REMARK SMILES IDX 41 13 53 14 23 15 5 16 4 17 2 18 1 19 3 20 8 21 9 22 10 23
REMARK SMILES IDX 11 24 48 25 49 26 50 27 51 28 13 29 16 31 17 32 18 33 19 34
REMARK SMILES IDX 54 35 43 37 44 38 45 39 46 40 40 41 38 42 39 43 36 44 37 45
REMARK SMILES IDX 25 47 26 48 27 49 28 50 29 51 33 52 30 53 32 54 31 55 34 56
REMARK SMILES IDX 35 57
REMARK H PARENT 13 30 54 36
REMARK Flexibility Score:   60.900
ROOT
ATOM      1  C   UNL     1       2.258  -3.543   0.000  1.00  0.00     0.269 C 
ENDROOT
BRANCH   1   2
ATOM      2  C   UNL     1       0.887  -2.934   0.000  1.00  0.00     0.110 C 
ATOM      3  C   UNL     1      -1.972  -0.518   0.000  1.00  0.00     0.120 C 
ATOM      4  C   UNL     1      -2.781  -1.781   0.000  1.00  0.00     0.222 C 
ATOM      5  C   UNL     1      -0.463  -0.340   0.000  1.00  0.00     0.155 C 
ATOM      6  C   UNL     1      -2.401   0.920   0.000  1.00  0.00     0.238 C 
ATOM      7  C   UNL     1      -2.091  -3.113   0.000  1.00  0.00     0.166 C 
ATOM      8  C   UNL     1      -1.284  -1.851   0.000  1.00  0.00     0.221 C 
ATOM      9  O   UNL     1      -0.084  -1.791   0.000  1.00  0.00    -0.357 OA
ATOM     10  C   UNL     1      -0.174   1.133   0.000  1.00  0.00     0.136 C 
ATOM     11  C   UNL     1      -1.370   2.010   0.000  1.00  0.00     0.262 C 
ATOM     12  C   UNL     1      -0.592  -3.181   0.000  1.00  0.00     0.101 C 
ATOM     13  C   UNL     1       0.724   2.334   0.000  1.00  0.00     0.255 C 
ATOM     14  C   UNL     1      -1.650   0.863   0.000  1.00  0.00     0.050 C 
ATOM     15  C   UNL     1      -0.011  -4.135   0.000  1.00  0.00     0.047 C 
BRANCH   3  16
ATOM     16  C   UNL     1      -2.663   0.814   0.000  1.00  0.00     0.251 C 
BRANCH  16  17
ATOM     17  O   UNL     1      -4.161   0.882   0.000  1.00  0.00    -0.465 OA
BRANCH  17  18
ATOM     18  C   UNL     1      -4.851   2.214   0.000  1.00  0.00     0.302 C 
ATOM     19  C   UNL     1      -6.349   2.282   0.000  1.00  0.00     0.139 C 
ATOM     20  O   UNL     1      -4.203   3.567   0.000  1.00  0.00    -0.253 OA
ENDBRANCH  17  18
ENDBRANCH  16  17
ENDBRANCH   3  16
BRANCH   4  21
ATOM     21  O   UNL     1      -4.279  -1.713   0.000  1.00  0.00    -0.459 OA
BRANCH  21  22
ATOM     22  C   UNL     1      -5.088  -2.977   0.000  1.00  0.00     0.303 C 
ATOM     23  C   UNL     1      -6.586  -2.908   0.000  1.00  0.00     0.139 C 
ATOM     24  O   UNL     1      -4.397  -4.308   0.000  1.00  0.00    -0.253 OA
ENDBRANCH  21  22
ENDBRANCH   4  21
BRANCH   6  25
ATOM     25  O   UNL     1      -3.860   1.267   0.000  1.00  0.00    -0.457 OA
BRANCH  25  26
ATOM     26  C   UNL     1      -4.289   2.705   0.000  1.00  0.00     0.303 C 
ATOM     27  C   UNL     1      -5.748   3.053   0.000  1.00  0.00     0.139 C 
ATOM     28  O   UNL     1      -3.133   3.661   0.000  1.00  0.00    -0.253 OA
ENDBRANCH  25  26
ENDBRANCH   6  25
BRANCH   7  29
ATOM     29  O   UNL     1      -2.739  -4.466   0.000  1.00  0.00    -0.389 OA
ATOM     30  H   UNL     1       0.000   0.000   0.000  1.00  0.00     0.211 HD
ENDBRANCH   7  29
BRANCH   8  31
ATOM     31  O   UNL     1      -2.768  -1.629   0.000  1.00  0.00    -0.459 OA
BRANCH  31  32
ATOM     32  C   UNL     1      -3.702  -2.803   0.000  1.00  0.00     0.303 C 
ATOM     33  C   UNL     1      -5.195  -2.946   0.000  1.00  0.00     0.139 C 
ATOM     34  O   UNL     1      -3.327  -4.255   0.000  1.00  0.00    -0.253 OA
ENDBRANCH  31  32
ENDBRANCH   8  31
BRANCH  10  35
ATOM     35  O   UNL     1      -1.249   2.179   0.000  1.00  0.00    -0.383 OA
ATOM     36  H   UNL     1       0.000   0.000   0.000  1.00  0.00     0.211 HD
ENDBRANCH  10  35
BRANCH  11  37
ATOM     37  O   UNL     1      -1.799   3.447   0.000  1.00  0.00    -0.454 OA
BRANCH  37  38
ATOM     38  C   UNL     1      -0.768   4.537   0.000  1.00  0.00     0.303 C 
ATOM     39  C   UNL     1      -1.197   5.974   0.000  1.00  0.00     0.139 C 
ATOM     40  O   UNL     1       0.691   4.189   0.000  1.00  0.00    -0.253 OA
ENDBRANCH  37  38
ENDBRANCH  11  37
BRANCH  13  41
ATOM     41  O   UNL     1       2.055   3.026   0.000  1.00  0.00    -0.455 OA
BRANCH  41  42
ATOM     42  C   UNL     1       3.554   3.072   0.000  1.00  0.00     0.309 C 
ATOM     43  O   UNL     1       3.842   4.545   0.000  1.00  0.00    -0.252 OA
BRANCH  42  44
ATOM     44  C   UNL     1       4.925   2.464   0.000  1.00  0.00     0.105 CG0
ATOM     45  C   UNL     1       5.823   3.665   0.000  1.00  0.00     0.020 C 
ATOM     46  G   UNL     1       5.896   1.321   0.000  1.00  0.00     0.000 G0
ENDBRANCH  42  44
ENDBRANCH  41  42
ENDBRANCH  13  41
ENDBRANCH   1   2
BRANCH   1  47
ATOM     47  O   UNL     1       3.758  -3.496   0.000  1.00  0.00    -0.459 OA
BRANCH  47  48
ATOM     48  C   UNL     1       5.088  -2.804   0.000  1.00  0.00     0.340 C 
ATOM     49  O   UNL     1       6.059  -3.947   0.000  1.00  0.00    -0.246 OA
BRANCH  48  50
ATOM     50  C   UNL     1       5.987  -1.603   0.000  1.00  0.00     0.081 A 
ATOM     51  C   UNL     1       7.117  -2.588   0.000  1.00  0.00     0.019 A 
ATOM     52  C   UNL     1       6.275  -0.131   0.000  1.00  0.00     0.058 A 
ATOM     53  C   UNL     1       8.536  -2.102   0.000  1.00  0.00     0.021 A 
ATOM     54  N   UNL     1       7.694   0.356   0.000  1.00  0.00    -0.260 NA
ATOM     55  C   UNL     1       8.825  -0.630   0.000  1.00  0.00     0.111 A 
BRANCH  52  56
ATOM     56  C   UNL     1       5.896   1.321   0.000  1.00  0.00     0.050 CG0
ATOM     57  C   UNL     1       7.227   2.013   0.000  1.00  0.00     0.015 C 
ATOM     58  G   UNL     1       4.925   2.464   0.000  1.00  0.00     0.000 G0
ENDBRANCH  52  56
ENDBRANCH  48  50
ENDBRANCH  47  48
ENDBRANCH   1  47
TORSDOF 13
