REMARK SMILES CC(=O)CCCCCCCCCCCC[C@H]1CC[C@@H](O)[C@@H](CO)N1
REMARK SMILES IDX 10 1 9 2 8 3 7 4 6 5 5 6 4 7 2 8 1 9 3 10 11 11 12 12 13 13
REMARK SMILES IDX 14 14 15 15 16 16 17 17 24 18 18 19 21 20 19 21 22 23 23 24
REMARK SMILES IDX 20 26
REMARK H PARENT 24 22 23 25 20 27
ROOT
ATOM      1  C   UNL     1      -2.208   0.273   0.000  1.00  0.00     0.000 C 
ENDROOT
BRANCH   1   2
ATOM      2  C   UNL     1      -3.545  -0.408   0.000  1.00  0.00     0.000 C 
BRANCH   2   3
ATOM      3  C   UNL     1      -4.802   0.409   0.000  1.00  0.00     0.000 C 
BRANCH   3   4
ATOM      4  C   UNL     1      -6.139  -0.272   0.000  1.00  0.00     0.000 C 
BRANCH   4   5
ATOM      5  C   UNL     1      -7.397   0.545   0.000  1.00  0.00     0.000 C 
BRANCH   5   6
ATOM      6  C   UNL     1      -8.733  -0.136   0.000  1.00  0.00     0.008 C 
BRANCH   6   7
ATOM      7  C   UNL     1      -9.991   0.682   0.000  1.00  0.00     0.075 C 
BRANCH   7   8
ATOM      8  C   UNL     1     -11.328   0.001   0.000  1.00  0.00     0.129 C 
ATOM      9  C   UNL     1     -12.586   0.818   0.000  1.00  0.00     0.087 C 
ATOM     10  O   UNL     1     -11.407  -1.497   0.000  1.00  0.00    -0.300 OA
ENDBRANCH   7   8
ENDBRANCH   6   7
ENDBRANCH   5   6
ENDBRANCH   4   5
ENDBRANCH   3   4
ENDBRANCH   2   3
ENDBRANCH   1   2
BRANCH   1  11
ATOM     11  C   UNL     1      -0.950  -0.545   0.000  1.00  0.00     0.000 C 
BRANCH  11  12
ATOM     12  C   UNL     1       0.387   0.136   0.000  1.00  0.00     0.000 C 
BRANCH  12  13
ATOM     13  C   UNL     1       1.644  -0.681   0.000  1.00  0.00     0.000 C 
BRANCH  13  14
ATOM     14  C   UNL     1       2.981  -0.000   0.000  1.00  0.00     0.002 C 
BRANCH  14  15
ATOM     15  C   UNL     1       4.239  -0.817   0.000  1.00  0.00     0.019 C 
BRANCH  15  16
ATOM     16  C   UNL     1       5.576  -0.137   0.000  1.00  0.00     0.054 C 
ATOM     17  C   UNL     1       5.654   1.361   0.000  1.00  0.00     0.021 C 
ATOM     18  N   UNL     1       6.833  -0.954   0.000  1.00  0.00    -0.307 NA
ATOM     19  C   UNL     1       6.991   2.042   0.000  1.00  0.00     0.035 C 
ATOM     20  C   UNL     1       8.170  -0.273   0.000  1.00  0.00     0.108 C 
ATOM     21  C   UNL     1       8.249   1.225   0.000  1.00  0.00     0.133 C 
ATOM     22  H   UNL     1       0.000   0.000   0.000  1.00  0.00     0.123 HD
BRANCH  20  23
ATOM     23  C   UNL     1       9.428  -1.090   0.000  1.00  0.00     0.177 C 
BRANCH  23  24
ATOM     24  O   UNL     1       9.349  -2.588   0.000  1.00  0.00    -0.395 OA
ATOM     25  H   UNL     1       0.000   0.000   0.000  1.00  0.00     0.210 HD
ENDBRANCH  23  24
ENDBRANCH  20  23
BRANCH  21  26
ATOM     26  O   UNL     1       9.585   1.906   0.000  1.00  0.00    -0.391 OA
ATOM     27  H   UNL     1       0.000   0.000   0.000  1.00  0.00     0.211 HD
ENDBRANCH  21  26
ENDBRANCH  15  16
ENDBRANCH  14  15
ENDBRANCH  13  14
ENDBRANCH  12  13
ENDBRANCH  11  12
ENDBRANCH   1  11
TORSDOF 16
