REMARK SMILES COc1ccc(-c2coc3cc(O)c(O)cc3c2=O)cc1
REMARK SMILES IDX 7 1 8 2 9 3 10 4 11 5 12 6 14 7 16 8 17 9 18 10 19 11 6 12
REMARK SMILES IDX 3 13 4 14 21 15 5 16 20 17 2 18 1 19 15 20 13 22
REMARK H PARENT 15 21 13 23
ROOT
ATOM      1  C   UNL     1      -0.464  -0.681   0.000  1.00  0.00     0.065 A 
ATOM      2  C   UNL     1       0.085  -2.077   0.000  1.00  0.00     0.208 A 
ATOM      3  O   UNL     1       1.568  -2.300   0.000  1.00  0.00    -0.463 OA
ATOM      4  C   UNL     1       2.503  -1.127   0.000  1.00  0.00     0.141 A 
ATOM      5  C   UNL     1       3.986  -1.350   0.000  1.00  0.00     0.098 A 
ATOM      6  C   UNL     1       4.921  -0.177   0.000  1.00  0.00     0.161 A 
ATOM      7  C   UNL     1       4.373   1.219   0.000  1.00  0.00     0.158 A 
ATOM      8  C   UNL     1       2.889   1.442   0.000  1.00  0.00     0.066 A 
ATOM      9  C   UNL     1       1.955   0.269   0.000  1.00  0.00     0.069 A 
ATOM     10  C   UNL     1       0.471   0.492   0.000  1.00  0.00     0.200 A 
ATOM     11  O   UNL     1      -0.077   1.888   0.000  1.00  0.00    -0.288 OA
ENDROOT
BRANCH   1  12
ATOM     12  C   UNL     1      -1.947  -0.458   0.000  1.00  0.00    -0.011 A 
ATOM     13  C   UNL     1      -4.913  -0.011   0.000  1.00  0.00     0.118 A 
ATOM     14  C   UNL     1      -3.979   1.162   0.000  1.00  0.00     0.047 A 
ATOM     15  C   UNL     1      -4.365  -1.408   0.000  1.00  0.00     0.047 A 
ATOM     16  C   UNL     1      -2.495   0.938   0.000  1.00  0.00     0.013 A 
ATOM     17  C   UNL     1      -2.882  -1.631   0.000  1.00  0.00     0.013 A 
BRANCH  13  18
ATOM     18  O   UNL     1      -6.397   0.212   0.000  1.00  0.00    -0.497 OA
ATOM     19  C   UNL     1      -6.945   1.608   0.000  1.00  0.00     0.278 C 
ENDBRANCH  13  18
ENDBRANCH   1  12
BRANCH   7  20
ATOM     20  O   UNL     1       5.308   2.392   0.000  1.00  0.00    -0.504 OA
ATOM     21  H   UNL     1       0.000   0.000   0.000  1.00  0.00     0.293 HD
ENDBRANCH   7  20
BRANCH   6  22
ATOM     22  O   UNL     1       6.404  -0.401   0.000  1.00  0.00    -0.504 OA
ATOM     23  H   UNL     1       0.000   0.000   0.000  1.00  0.00     0.293 HD
ENDBRANCH   6  22
TORSDOF 4
