REMARK SMILES COc1cc(C=CC(=O)O)ccc1O
REMARK SMILES IDX 6 1 5 2 3 3 4 4 13 5 12 6 11 7 2 8 1 9 14 10 7 12 8 13 9 14
REMARK SMILES IDX 10 15
REMARK H PARENT 14 11 10 16
ROOT
ATOM      1  C   UNL     1      -1.580  -0.520   0.000  1.00  0.00     0.016 C 
ENDROOT
BRANCH   1   2
ATOM      2  C   UNL     1      -0.183   0.028   0.000  1.00  0.00    -0.021 A 
ATOM      3  C   UNL     1       2.385  -0.361   0.000  1.00  0.00     0.161 A 
ATOM      4  C   UNL     1       0.989  -0.908   0.000  1.00  0.00     0.058 A 
ATOM      5  C   UNL     1       2.610   1.123   0.000  1.00  0.00     0.157 A 
ATOM      6  C   UNL     1       1.437   2.058   0.000  1.00  0.00     0.051 A 
ATOM      7  C   UNL     1       0.041   1.511   0.000  1.00  0.00     0.012 A 
BRANCH   3   8
ATOM      8  O   UNL     1       3.558  -1.296   0.000  1.00  0.00    -0.493 OA
ATOM      9  C   UNL     1       3.334  -2.780   0.000  1.00  0.00     0.278 C 
ENDBRANCH   3   8
BRANCH   5  10
ATOM     10  O   UNL     1       4.006   1.670   0.000  1.00  0.00    -0.504 OA
ATOM     11  H   UNL     1       0.000   0.000   0.000  1.00  0.00     0.293 HD
ENDBRANCH   5  10
ENDBRANCH   1   2
BRANCH   1  12
ATOM     12  C   UNL     1      -2.752   0.416   0.000  1.00  0.00     0.094 C 
BRANCH  12  13
ATOM     13  C   UNL     1      -4.149  -0.131   0.000  1.00  0.00     0.328 C 
ATOM     14  O   UNL     1      -4.373  -1.615   0.000  1.00  0.00    -0.247 OA
BRANCH  13  15
ATOM     15  O   UNL     1      -5.321   0.804   0.000  1.00  0.00    -0.478 OA
ATOM     16  H   UNL     1       0.000   0.000   0.000  1.00  0.00     0.297 HD
ENDBRANCH  13  15
ENDBRANCH  12  13
ENDBRANCH   1  12
TORSDOF 6
