REMARK SMILES CC(C)=CCC[C@](C)(O)[C@H]1CC[C@]2(C)[C@@H]1CC[C@@H]1[C@@]3(C)CC[C@@H](O)C(C)(C)[C@@H]3CC[C@]12C
REMARK SMILES IDX 6 1 5 2 4 3 2 4 1 5 3 6 7 7 8 8 9 9 10 11 11 12 15 13 12 14
REMARK SMILES IDX 13 15 16 16 31 17 17 18 30 19 18 20 29 21 19 22 28 23 21 24
REMARK SMILES IDX 25 25 22 26 23 27 14 28 32 29 20 30 26 31 27 32 24 33
REMARK H PARENT 9 10 24 34
ROOT
ATOM      1  C   UNL     1       4.612   0.016   0.000  1.00  0.00     0.039 C 
ENDROOT
BRANCH   1   2
ATOM      2  C   UNL     1       6.085  -0.269   0.000  1.00  0.00     0.030 C 
BRANCH   2   3
ATOM      3  C   UNL     1       7.068   0.864   0.000  1.00  0.00    -0.028 C 
BRANCH   3   4
ATOM      4  C   UNL     1       8.540   0.578   0.000  1.00  0.00    -0.080 C 
ATOM      5  C   UNL     1       9.524   1.711   0.000  1.00  0.00     0.039 C 
ATOM      6  C   UNL     1       9.030  -0.840   0.000  1.00  0.00     0.039 C 
ENDBRANCH   3   4
ENDBRANCH   2   3
ENDBRANCH   1   2
BRANCH   1   7
ATOM      7  C   UNL     1       3.628  -1.117   0.000  1.00  0.00     0.065 C 
ATOM      8  C   UNL     1       2.645  -2.249   0.000  1.00  0.00     0.042 C 
BRANCH   7   9
ATOM      9  O   UNL     1       4.761  -2.100   0.000  1.00  0.00    -0.390 OA
ATOM     10  H   UNL     1       0.000   0.000   0.000  1.00  0.00     0.211 HD
ENDBRANCH   7   9
BRANCH   7  11
ATOM     11  C   UNL     1       2.496  -0.133   0.000  1.00  0.00     0.024 C 
ATOM     12  C   UNL     1       2.626   1.361   0.000  1.00  0.00     0.007 C 
ATOM     13  C   UNL     1       1.034  -0.471   0.000  1.00  0.00     0.001 C 
ATOM     14  C   UNL     1       1.244   1.947   0.000  1.00  0.00     0.008 C 
ATOM     15  C   UNL     1       0.261   0.814   0.000  1.00  0.00    -0.024 C 
ATOM     16  C   UNL     1       0.308  -1.784   0.000  1.00  0.00     0.005 C 
ATOM     17  C   UNL     1      -1.239   0.787   0.000  1.00  0.00    -0.024 C 
ATOM     18  C   UNL     1      -1.192  -1.811   0.000  1.00  0.00     0.005 C 
ATOM     19  C   UNL     1      -2.012   2.072   0.000  1.00  0.00     0.008 C 
ATOM     20  C   UNL     1      -1.965  -0.525   0.000  1.00  0.00     0.002 C 
ATOM     21  C   UNL     1      -3.512   2.045   0.000  1.00  0.00     0.005 C 
ATOM     22  C   UNL     1      -3.465  -0.553   0.000  1.00  0.00    -0.026 C 
ATOM     23  C   UNL     1      -4.238   0.733   0.000  1.00  0.00     0.003 C 
ATOM     24  C   UNL     1      -4.191  -1.865   0.000  1.00  0.00     0.010 C 
ATOM     25  C   UNL     1      -5.738   0.706   0.000  1.00  0.00    -0.006 C 
ATOM     26  C   UNL     1      -5.691  -1.892   0.000  1.00  0.00     0.033 C 
ATOM     27  C   UNL     1      -6.464  -0.607   0.000  1.00  0.00     0.120 C 
ATOM     28  C   UNL     1      -0.374   2.173   0.000  1.00  0.00     0.012 C 
ATOM     29  C   UNL     1      -0.465  -0.498   0.000  1.00  0.00     0.012 C 
ATOM     30  C   UNL     1      -2.692  -1.838   0.000  1.00  0.00     0.012 C 
ATOM     31  C   UNL     1      -5.504   2.187   0.000  1.00  0.00     0.014 C 
ATOM     32  C   UNL     1      -7.157   1.193   0.000  1.00  0.00     0.014 C 
BRANCH  27  33
ATOM     33  O   UNL     1      -7.964  -0.634   0.000  1.00  0.00    -0.393 OA
ATOM     34  H   UNL     1       0.000   0.000   0.000  1.00  0.00     0.210 HD
ENDBRANCH  27  33
ENDBRANCH   7  11
ENDBRANCH   1   7
TORSDOF 7
