REMARK SMILES COC(=O)c1ccc2c(c1)C(=O)CC(C)(C)O2
REMARK SMILES IDX 3 1 4 2 2 3 1 4 5 5 6 6 10 7 7 8 9 9 8 10 11 11 17 12 13 13
REMARK SMILES IDX 14 14 12 15 15 16 16 17
REMARK H PARENT
ROOT
ATOM      1  C   UNL     1      -3.416  -0.256   0.000  1.00  0.00     0.337 C 
ATOM      2  O   UNL     1      -3.782  -1.711   0.000  1.00  0.00    -0.246 OA
ENDROOT
BRANCH   1   3
ATOM      3  O   UNL     1      -4.492   0.788   0.000  1.00  0.00    -0.465 OA
ATOM      4  C   UNL     1      -5.935   0.378   0.000  1.00  0.00     0.282 C 
ENDBRANCH   1   3
BRANCH   1   5
ATOM      5  C   UNL     1      -1.973   0.154   0.000  1.00  0.00     0.061 A 
ATOM      6  C   UNL     1      -1.607   1.609   0.000  1.00  0.00     0.019 A 
ATOM      7  C   UNL     1      -0.896  -0.890   0.000  1.00  0.00     0.031 A 
ATOM      8  C   UNL     1      -0.164   2.019   0.000  1.00  0.00     0.048 A 
ATOM      9  C   UNL     1       0.546  -0.480   0.000  1.00  0.00     0.061 A 
ATOM     10  C   UNL     1       0.913   0.974   0.000  1.00  0.00     0.130 A 
ATOM     11  C   UNL     1       1.623  -1.525   0.000  1.00  0.00     0.170 C 
ATOM     12  O   UNL     1       2.355   1.385   0.000  1.00  0.00    -0.487 OA
ATOM     13  C   UNL     1       3.066  -1.115   0.000  1.00  0.00     0.129 C 
ATOM     14  C   UNL     1       3.432   0.340   0.000  1.00  0.00     0.111 C 
ATOM     15  O   UNL     1       1.257  -2.979   0.000  1.00  0.00    -0.294 OA
ATOM     16  C   UNL     1       4.801  -0.273   0.000  1.00  0.00     0.057 C 
ATOM     17  C   UNL     1       4.274   1.582   0.000  1.00  0.00     0.057 C 
ENDBRANCH   1   5
TORSDOF 2
