REMARK SMILES COc1cc2c(cc1OC)[C@]13C[C@@H](OC)C=CC1=CC[N@+]3([O-])C[C@@H]2O
REMARK SMILES IDX 3 1 4 2 5 3 6 4 7 5 8 6 11 7 12 8 13 9 16 10 17 11 18 12
REMARK SMILES IDX 19 13 20 14 21 15 22 16 23 17 24 18 2 19 1 20 9 21 10 22
REMARK SMILES IDX 25 23 14 25 15 26
REMARK H PARENT 25 24
ROOT
ATOM      1  C   UNL     1       2.421  -0.995   0.000  1.00  0.00     0.161 A 
ATOM      2  C   UNL     1       1.289  -1.978   0.000  1.00  0.00     0.057 A 
ATOM      3  C   UNL     1      -0.129  -1.490   0.000  1.00  0.00    -0.000 A 
ATOM      4  C   UNL     1      -0.415  -0.017   0.000  1.00  0.00     0.028 A 
ATOM      5  C   UNL     1       0.718   0.967   0.000  1.00  0.00     0.061 A 
ATOM      6  C   UNL     1       2.136   0.478   0.000  1.00  0.00     0.161 A 
ATOM      7  C   UNL     1      -1.833   0.472   0.000  1.00  0.00     0.154 C 
ATOM      8  C   UNL     1      -0.618   0.933   0.000  1.00  0.00     0.116 C 
ATOM      9  C   UNL     1      -0.136   1.572   0.000  1.00  0.00     0.147 C 
ATOM     10  C   UNL     1      -0.448   2.308   0.000  1.00  0.00     0.005 C 
ATOM     11  C   UNL     1      -1.242   2.406   0.000  1.00  0.00     0.009 C 
ATOM     12  C   UNL     1      -2.419   1.853   0.000  1.00  0.00     0.019 C 
ATOM     13  C   UNL     1      -3.913   1.722   0.000  1.00  0.00     0.044 C 
ATOM     14  C   UNL     1      -4.251   0.261   0.000  1.00  0.00     0.294 C 
ATOM     15  N   UNL     1      -2.965  -0.512   0.000  1.00  0.00    -0.343 N 
ATOM     16  O   UNL     1      -4.194  -1.372   0.000  1.00  0.00    -0.632 OA
ATOM     17  C   UNL     1      -2.680  -1.985   0.000  1.00  0.00     0.302 C 
ATOM     18  C   UNL     1      -1.262  -2.473   0.000  1.00  0.00     0.200 C 
ENDROOT
BRANCH   1  19
ATOM     19  O   UNL     1       3.840  -1.484   0.000  1.00  0.00    -0.493 OA
ATOM     20  C   UNL     1       4.125  -2.956   0.000  1.00  0.00     0.278 C 
ENDBRANCH   1  19
BRANCH   6  21
ATOM     21  O   UNL     1       3.268   1.462   0.000  1.00  0.00    -0.493 OA
ATOM     22  C   UNL     1       4.686   0.973   0.000  1.00  0.00     0.278 C 
ENDBRANCH   6  21
BRANCH  18  23
ATOM     23  O   UNL     1      -0.976  -3.946   0.000  1.00  0.00    -0.382 OA
ATOM     24  H   UNL     1       0.000   0.000   0.000  1.00  0.00     0.211 HD
ENDBRANCH  18  23
BRANCH   9  25
ATOM     25  O   UNL     1       2.048   1.303   0.000  1.00  0.00    -0.377 OA
ATOM     26  C   UNL     1       2.951   2.501   0.000  1.00  0.00     0.195 C 
ENDBRANCH   9  25
TORSDOF 4
