REMARK SMILES CC=C(COC(C)=O)C(=O)O
REMARK SMILES IDX 3 1 2 2 1 3 4 4 5 5 6 6 7 7 8 8 9 9 10 10 11 11
REMARK H PARENT 11 12
ROOT
ATOM      1  C   UNL     1      -1.098   0.455   0.000  1.00  0.00     0.070 C 
ENDROOT
BRANCH   1   2
ATOM      2  C   UNL     1      -2.142   1.533   0.000  1.00  0.00    -0.016 C 
ATOM      3  C   UNL     1      -3.597   1.168   0.000  1.00  0.00     0.036 C 
ENDBRANCH   1   2
BRANCH   1   4
ATOM      4  C   UNL     1       0.357   0.820   0.000  1.00  0.00     0.276 C 
BRANCH   4   5
ATOM      5  O   UNL     1       1.400  -0.258   0.000  1.00  0.00    -0.461 OA
BRANCH   5   6
ATOM      6  C   UNL     1       2.855   0.107   0.000  1.00  0.00     0.302 C 
ATOM      7  C   UNL     1       3.899  -0.970   0.000  1.00  0.00     0.139 C 
ATOM      8  O   UNL     1       3.267   1.550   0.000  1.00  0.00    -0.253 OA
ENDBRANCH   5   6
ENDBRANCH   4   5
ENDBRANCH   1   4
BRANCH   1   9
ATOM      9  C   UNL     1      -1.510  -0.987   0.000  1.00  0.00     0.334 C 
ATOM     10  O   UNL     1      -2.965  -1.352   0.000  1.00  0.00    -0.247 OA
BRANCH   9  11
ATOM     11  O   UNL     1      -0.466  -2.065   0.000  1.00  0.00    -0.478 OA
ATOM     12  H   UNL     1       0.000   0.000   0.000  1.00  0.00     0.297 HD
ENDBRANCH   9  11
ENDBRANCH   1   9
TORSDOF 6
