REMARK SMILES CCc1c(C)ccc2c1C(=O)CC1C(C)(C)C(=O)C=C[C@]21C
REMARK SMILES IDX 3 1 4 2 5 3 6 4 7 5 8 6 9 7 10 8 11 9 12 10 13 11 14 12
REMARK SMILES IDX 15 13 16 14 17 15 18 16 19 17 20 18 21 19 22 20 2 21 1 22
REMARK H PARENT
ROOT
ATOM      1  C   UNL     1      -2.877  -0.287   0.000  1.00  0.00    -0.034 A 
ATOM      2  C   UNL     1      -3.529   1.064   0.000  1.00  0.00    -0.047 A 
ATOM      3  C   UNL     1      -5.024   1.175   0.000  1.00  0.00     0.044 C 
ATOM      4  C   UNL     1      -2.684   2.304   0.000  1.00  0.00     0.004 A 
ATOM      5  C   UNL     1      -1.188   2.192   0.000  1.00  0.00     0.005 A 
ATOM      6  C   UNL     1      -0.537   0.841   0.000  1.00  0.00    -0.027 A 
ATOM      7  C   UNL     1      -1.381  -0.399   0.000  1.00  0.00     0.025 A 
ATOM      8  C   UNL     1      -0.730  -1.750   0.000  1.00  0.00     0.163 C 
ATOM      9  O   UNL     1      -1.574  -2.990   0.000  1.00  0.00    -0.294 OA
ATOM     10  C   UNL     1       0.766  -1.861   0.000  1.00  0.00     0.087 C 
ATOM     11  C   UNL     1       1.611  -0.621   0.000  1.00  0.00     0.024 C 
ATOM     12  C   UNL     1       3.107  -0.732   0.000  1.00  0.00     0.032 C 
ATOM     13  C   UNL     1       4.474  -1.349   0.000  1.00  0.00     0.020 C 
ATOM     14  C   UNL     1       2.737  -2.186   0.000  1.00  0.00     0.020 C 
ATOM     15  C   UNL     1       3.951   0.507   0.000  1.00  0.00     0.161 C 
ATOM     16  O   UNL     1       5.447   0.396   0.000  1.00  0.00    -0.294 OA
ATOM     17  C   UNL     1       3.299   1.859   0.000  1.00  0.00     0.044 C 
ATOM     18  C   UNL     1       1.803   1.970   0.000  1.00  0.00    -0.012 C 
ATOM     19  C   UNL     1       0.959   0.730   0.000  1.00  0.00     0.016 C 
ATOM     20  C   UNL     1       0.307   2.081   0.000  1.00  0.00     0.021 C 
ENDROOT
BRANCH   1  21
ATOM     21  C   UNL     1      -3.721  -1.527   0.000  1.00  0.00     0.033 C 
ATOM     22  C   UNL     1      -5.217  -1.416   0.000  1.00  0.00     0.009 C 
ENDBRANCH   1  21
TORSDOF 1
