REMARK SMILES CC=C1CN(C)C2Cc3c([nH]c4ccccc34)[C@H](c3c(OC)ccc4c5c([nH]c34)C3(C(=O)OC)CC4CC(CC)C3N(CC5)C4)CC1C2C(=O)OC
REMARK SMILES IDX 18 1 46 2 47 3 3 4 4 5 5 6 48 7 7 8 6 9 2 11 1 12 49 13
REMARK SMILES IDX 50 14 51 15 52 16 10 17 9 18 11 19 17 20 12 21 16 22 13 23
REMARK SMILES IDX 15 24 14 25 8 27 19 29 29 30 20 31 28 32 25 33 23 34 27 35
REMARK SMILES IDX 26 36 24 37 21 39 22 40 30 41 41 42 35 43 38 44 42 45 36 46
REMARK SMILES IDX 37 47 45 48 31 49 32 50 33 51 34 52 39 53 40 54 43 55 44 57
REMARK H PARENT 11 26 28 38
REMARK Flexibility Score:   44.800
ROOT
ATOM      1  C   UNL     1       1.781  -0.895   0.000  1.00  0.00     0.073 C 
ENDROOT
BRANCH   1   2
ATOM      2  C   UNL     1       0.975   0.370   0.000  1.00  0.00     0.024 C 
BRANCH   2   3
ATOM      3  C   UNL     1       1.300   1.835   0.000  1.00  0.00     0.033 C 
ATOM      4  C   UNL     1       1.040   3.312   0.000  1.00  0.00    -0.056 C 
ATOM      5  C   UNL     1       2.189   4.276   0.000  1.00  0.00     0.115 C 
ATOM      6  N   UNL     1       3.598   3.763   0.000  1.00  0.00    -0.298 NA
ATOM      7  C   UNL     1       2.565   2.641   0.000  1.00  0.00     0.124 C 
ATOM      8  C   UNL     1       4.030   2.316   0.000  1.00  0.00     0.076 CG0
ATOM      9  C   UNL     1       4.747   4.727   0.000  1.00  0.00     0.106 C 
ATOM     10  G   UNL     1       4.836   1.051   0.000  1.00  0.00     0.000 G0
BRANCH   4  11
ATOM     11  C   UNL     1      -0.370   3.825   0.000  1.00  0.00    -0.030 C 
ATOM     12  C   UNL     1      -0.630   5.302   0.000  1.00  0.00     0.035 C 
ENDBRANCH   4  11
BRANCH   7  13
ATOM     13  C   UNL     1       2.305   4.118   0.000  1.00  0.00     0.310 C 
ATOM     14  O   UNL     1       0.895   4.631   0.000  1.00  0.00    -0.252 OA
BRANCH  13  15
ATOM     15  O   UNL     1       3.454   5.082   0.000  1.00  0.00    -0.469 OA
ATOM     16  C   UNL     1       3.193   6.559   0.000  1.00  0.00     0.282 C 
ENDBRANCH  13  15
ENDBRANCH   7  13
ENDBRANCH   2   3
ENDBRANCH   1   2
BRANCH   1  17
ATOM     17  C   UNL     1       3.246  -1.219   0.000  1.00  0.00     0.027 A 
ATOM     18  C   UNL     1       4.511  -0.413   0.000  1.00  0.00    -0.017 A 
ATOM     19  N   UNL     1       3.621  -2.672   0.000  1.00  0.00    -0.358 N 
ATOM     20  C   UNL     1       5.668  -1.368   0.000  1.00  0.00     0.003 A 
ATOM     21  C   UNL     1       5.119  -2.763   0.000  1.00  0.00     0.046 A 
ATOM     22  C   UNL     1       7.152  -1.146   0.000  1.00  0.00     0.010 A 
ATOM     23  C   UNL     1       6.052  -3.937   0.000  1.00  0.00     0.026 A 
ATOM     24  C   UNL     1       8.086  -2.320   0.000  1.00  0.00     0.001 A 
ATOM     25  C   UNL     1       7.536  -3.715   0.000  1.00  0.00     0.002 A 
ATOM     26  H   UNL     1       0.000   0.000   0.000  1.00  0.00     0.166 HD
BRANCH  18  27
ATOM     27  C   UNL     1       4.836   1.051   0.000  1.00  0.00     0.058 CG0
ATOM     28  G   UNL     1       4.030   2.316   0.000  1.00  0.00     0.000 G0
ENDBRANCH  18  27
ENDBRANCH   1  17
BRANCH   1  29
ATOM     29  C   UNL     1       0.921  -2.123   0.000  1.00  0.00     0.027 A 
ATOM     30  C   UNL     1      -0.573  -1.993   0.000  1.00  0.00     0.054 A 
ATOM     31  C   UNL     1       1.555  -3.483   0.000  1.00  0.00     0.124 A 
ATOM     32  N   UNL     1      -1.476  -0.795   0.000  1.00  0.00    -0.357 N 
ATOM     33  C   UNL     1      -1.434  -3.221   0.000  1.00  0.00     0.004 A 
ATOM     34  C   UNL     1       0.695  -4.712   0.000  1.00  0.00     0.047 A 
ATOM     35  C   UNL     1      -2.894  -1.283   0.000  1.00  0.00     0.038 A 
ATOM     36  C   UNL     1      -2.868  -2.783   0.000  1.00  0.00    -0.017 A 
ATOM     37  C   UNL     1      -0.800  -4.581   0.000  1.00  0.00     0.014 A 
ATOM     38  H   UNL     1       0.000   0.000   0.000  1.00  0.00     0.166 HD
BRANCH  31  39
ATOM     39  O   UNL     1       3.049  -3.614   0.000  1.00  0.00    -0.496 OA
ATOM     40  C   UNL     1       3.683  -4.973   0.000  1.00  0.00     0.278 C 
ENDBRANCH  31  39
BRANCH  35  41
ATOM     41  C   UNL     1      -4.083  -0.369   0.000  1.00  0.00     0.124 C 
ATOM     42  C   UNL     1      -5.540  -0.728   0.000  1.00  0.00     0.083 C 
ATOM     43  C   UNL     1      -5.475   0.190   0.000  1.00  0.00     0.031 C 
ATOM     44  C   UNL     1      -6.406   0.497   0.000  1.00  0.00     0.008 C 
ATOM     45  N   UNL     1      -6.167  -2.090   0.000  1.00  0.00    -0.298 NA
ATOM     46  C   UNL     1      -8.527  -1.004   0.000  1.00  0.00     0.005 C 
ATOM     47  C   UNL     1      -7.900   0.358   0.000  1.00  0.00     0.010 C 
ATOM     48  C   UNL     1      -7.660  -2.229   0.000  1.00  0.00     0.088 C 
BRANCH  41  49
ATOM     49  C   UNL     1      -3.775   1.099   0.000  1.00  0.00     0.319 C 
ATOM     50  O   UNL     1      -4.892   2.100   0.000  1.00  0.00    -0.251 OA
BRANCH  49  51
ATOM     51  O   UNL     1      -2.349   1.567   0.000  1.00  0.00    -0.468 OA
ATOM     52  C   UNL     1      -2.041   3.034   0.000  1.00  0.00     0.282 C 
ENDBRANCH  49  51
ENDBRANCH  41  49
BRANCH  44  53
ATOM     53  C   UNL     1      -5.779   1.859   0.000  1.00  0.00     0.002 C 
ATOM     54  C   UNL     1      -6.645   3.084   0.000  1.00  0.00     0.004 C 
ENDBRANCH  44  53
BRANCH  45  55
ATOM     55  C   UNL     1      -5.492  -3.430   0.000  1.00  0.00     0.089 CG1
ATOM     56  G   UNL     1      -4.024  -3.739   0.000  1.00  0.00     0.000 G1
ENDBRANCH  45  55
ENDBRANCH  35  41
BRANCH  36  57
ATOM     57  C   UNL     1      -4.024  -3.739   0.000  1.00  0.00     0.053 CG1
ATOM     58  G   UNL     1      -5.492  -3.430   0.000  1.00  0.00     0.000 G1
ENDBRANCH  36  57
ENDBRANCH   1  29
TORSDOF 8
