REMARK SMILES C=CC[C@]12C[C@@H](OC)[C@H](O)[C@](OC)([C@@H](c3cc(OC)c4c(c3)OCO4)[C@@H]1C)[C@H]2O
REMARK SMILES IDX 4 1 5 2 6 3 9 4 11 5 14 6 26 7 27 8 28 9 3 10 2 11 1 12
REMARK SMILES IDX 29 13 7 15 8 16 15 17 16 18 22 19 17 20 21 21 20 22 23 23
REMARK SMILES IDX 25 24 24 25 18 26 19 27 12 28 13 29 10 30
REMARK H PARENT 29 14 10 31
ROOT
ATOM      1  C   UNL     1       2.667   1.115   0.000  1.00  0.00     0.009 C 
ATOM      2  C   UNL     1       3.891   0.247   0.000  1.00  0.00     0.045 C 
ATOM      3  C   UNL     1       3.751  -1.246   0.000  1.00  0.00     0.150 C 
ATOM      4  C   UNL     1       2.388  -1.872   0.000  1.00  0.00     0.178 C 
ATOM      5  C   UNL     1       1.164  -1.004   0.000  1.00  0.00     0.129 C 
ATOM      6  C   UNL     1       0.269   0.199   0.000  1.00  0.00     0.060 C 
ATOM      7  C   UNL     1       1.136   1.422   0.000  1.00  0.00     0.006 C 
ATOM      8  C   UNL     1       0.656   2.844   0.000  1.00  0.00     0.009 C 
ATOM      9  C   UNL     1       1.304   0.489   0.000  1.00  0.00     0.156 C 
ENDROOT
BRANCH   1  10
ATOM     10  C   UNL     1       2.807   2.608   0.000  1.00  0.00     0.037 C 
BRANCH  10  11
ATOM     11  C   UNL     1       4.170   3.234   0.000  1.00  0.00    -0.034 C 
ATOM     12  C   UNL     1       4.309   4.728   0.000  1.00  0.00     0.004 C 
ENDBRANCH  10  11
ENDBRANCH   1  10
BRANCH   9  13
ATOM     13  O   UNL     1       0.080   1.357   0.000  1.00  0.00    -0.389 OA
ATOM     14  H   UNL     1       0.000   0.000   0.000  1.00  0.00     0.211 HD
ENDBRANCH   9  13
BRANCH   3  15
ATOM     15  O   UNL     1       4.975  -2.114   0.000  1.00  0.00    -0.379 OA
ATOM     16  C   UNL     1       4.835  -3.607   0.000  1.00  0.00     0.195 C 
ENDBRANCH   3  15
BRANCH   6  17
ATOM     17  C   UNL     1      -1.231   0.181   0.000  1.00  0.00    -0.034 A 
ATOM     18  C   UNL     1      -1.966  -1.126   0.000  1.00  0.00     0.054 A 
ATOM     19  C   UNL     1      -1.996   1.472   0.000  1.00  0.00     0.055 A 
ATOM     20  C   UNL     1      -3.466  -1.144   0.000  1.00  0.00     0.165 A 
ATOM     21  C   UNL     1      -3.496   1.454   0.000  1.00  0.00     0.169 A 
ATOM     22  C   UNL     1      -4.231   0.147   0.000  1.00  0.00     0.207 A 
ATOM     23  O   UNL     1      -4.513   2.557   0.000  1.00  0.00    -0.453 OA
ATOM     24  O   UNL     1      -5.702   0.442   0.000  1.00  0.00    -0.450 OA
ATOM     25  C   UNL     1      -5.876   1.931   0.000  1.00  0.00     0.468 C 
BRANCH  20  26
ATOM     26  O   UNL     1      -4.201  -2.451   0.000  1.00  0.00    -0.493 OA
ATOM     27  C   UNL     1      -3.436  -3.742   0.000  1.00  0.00     0.278 C 
ENDBRANCH  20  26
ENDBRANCH   6  17
BRANCH   5  28
ATOM     28  O   UNL     1      -0.199  -1.631   0.000  1.00  0.00    -0.372 OA
ATOM     29  C   UNL     1      -0.338  -3.124   0.000  1.00  0.00     0.196 C 
ENDBRANCH   5  28
BRANCH   4  30
ATOM     30  O   UNL     1       2.248  -3.366   0.000  1.00  0.00    -0.387 OA
ATOM     31  H   UNL     1       0.000   0.000   0.000  1.00  0.00     0.211 HD
ENDBRANCH   4  30
TORSDOF 8
