REMARK SMILES C/C(C=O)=C\CC[C@@H](C)[C@H]1CC[C@@]2(C)[C@@H]3CC[C@H]4C(C)(C)[C@H](O)CC[C@@]45C[C@@]35CC[C@]12C
REMARK SMILES IDX 6 1 5 2 2 3 1 4 3 5 4 6 7 7 8 8 9 9 10 10 11 11 31 12 12 13
REMARK SMILES IDX 30 14 13 15 29 16 15 17 28 18 16 19 27 20 26 21 17 22 25 23
REMARK SMILES IDX 18 24 24 25 19 26 22 27 32 28 14 29 20 30 21 31 23 32
REMARK H PARENT 23 33
ROOT
ATOM      1  C   UNL     1      -5.332   0.053   0.000  1.00  0.00     0.028 C 
ENDROOT
BRANCH   1   2
ATOM      2  C   UNL     1      -5.748  -1.388   0.000  1.00  0.00    -0.020 C 
BRANCH   2   3
ATOM      3  C   UNL     1      -7.204  -1.749   0.000  1.00  0.00    -0.015 C 
ATOM      4  C   UNL     1      -8.244  -0.669   0.000  1.00  0.00     0.047 C 
BRANCH   3   5
ATOM      5  C   UNL     1      -7.619  -3.190   0.000  1.00  0.00     0.254 C 
ATOM      6  O   UNL     1      -9.075  -3.551   0.000  1.00  0.00    -0.298 OA
ENDBRANCH   3   5
ENDBRANCH   2   3
ENDBRANCH   1   2
BRANCH   1   7
ATOM      7  C   UNL     1      -3.876   0.414   0.000  1.00  0.00     0.008 C 
BRANCH   7   8
ATOM      8  C   UNL     1      -3.461   1.856   0.000  1.00  0.00    -0.010 C 
ATOM      9  C   UNL     1      -4.502   2.936   0.000  1.00  0.00     0.008 C 
BRANCH   8  10
ATOM     10  C   UNL     1      -2.005   2.217   0.000  1.00  0.00    -0.002 C 
ATOM     11  C   UNL     1      -1.441   3.607   0.000  1.00  0.00     0.005 C 
ATOM     12  C   UNL     1      -0.857   1.251   0.000  1.00  0.00    -0.024 C 
ATOM     13  C   UNL     1       0.055   3.500   0.000  1.00  0.00     0.008 C 
ATOM     14  C   UNL     1      -0.807  -0.248   0.000  1.00  0.00     0.008 C 
ATOM     15  C   UNL     1       0.416   2.044   0.000  1.00  0.00    -0.024 C 
ATOM     16  C   UNL     1       0.517  -0.954   0.000  1.00  0.00     0.008 C 
ATOM     17  C   UNL     1       1.739   1.338   0.000  1.00  0.00     0.002 C 
ATOM     18  C   UNL     1       1.790  -0.161   0.000  1.00  0.00    -0.020 C 
ATOM     19  C   UNL     1       3.012   2.131   0.000  1.00  0.00     0.005 C 
ATOM     20  C   UNL     1       1.840  -1.660   0.000  1.00  0.00     0.015 C 
ATOM     21  C   UNL     1       3.113  -0.867   0.000  1.00  0.00    -0.020 C 
ATOM     22  C   UNL     1       4.336   1.426   0.000  1.00  0.00     0.005 C 
ATOM     23  C   UNL     1       3.164  -2.366   0.000  1.00  0.00     0.010 C 
ATOM     24  C   UNL     1       4.386  -0.074   0.000  1.00  0.00     0.004 C 
ATOM     25  C   UNL     1       4.487  -3.072   0.000  1.00  0.00     0.033 C 
ATOM     26  C   UNL     1       5.710  -0.779   0.000  1.00  0.00    -0.006 C 
ATOM     27  C   UNL     1       5.760  -2.279   0.000  1.00  0.00     0.120 C 
ATOM     28  C   UNL     1      -2.206   0.595   0.000  1.00  0.00     0.012 C 
ATOM     29  C   UNL     1       1.599   2.966   0.000  1.00  0.00     0.012 C 
ATOM     30  C   UNL     1       7.195  -0.990   0.000  1.00  0.00     0.014 C 
ATOM     31  C   UNL     1       6.175   0.646   0.000  1.00  0.00     0.014 C 
BRANCH  27  32
ATOM     32  O   UNL     1       7.084  -2.985   0.000  1.00  0.00    -0.393 OA
ATOM     33  H   UNL     1       0.000   0.000   0.000  1.00  0.00     0.210 HD
ENDBRANCH  27  32
ENDBRANCH   8  10
ENDBRANCH   7   8
ENDBRANCH   1   7
TORSDOF 7
