REMARK SMILES Cc1cc(O)c2c(c1)C(=O)c1ccc(O)cc1C2=O
REMARK SMILES IDX 1 1 2 2 3 3 4 4 6 5 18 6 19 7 17 8 16 9 14 10 13 11 12 12
REMARK SMILES IDX 11 13 9 14 10 15 7 16 8 17 5 18 15 20
REMARK H PARENT 5 19 15 21
ROOT
ATOM      1  C   UNL     1      -5.172   1.264   0.000  1.00  0.00     0.044 C 
ATOM      2  C   UNL     1      -3.819   0.616   0.000  1.00  0.00    -0.047 A 
ATOM      3  C   UNL     1      -3.704  -0.879   0.000  1.00  0.00     0.050 A 
ATOM      4  C   UNL     1      -2.351  -1.527   0.000  1.00  0.00     0.127 A 
ATOM      5  C   UNL     1      -1.113  -0.680   0.000  1.00  0.00     0.075 A 
ATOM      6  C   UNL     1       0.239  -1.328   0.000  1.00  0.00     0.198 C 
ATOM      7  O   UNL     1       0.355  -2.823   0.000  1.00  0.00    -0.288 OA
ATOM      8  C   UNL     1       1.477  -0.480   0.000  1.00  0.00     0.038 A 
ATOM      9  C   UNL     1       2.830  -1.128   0.000  1.00  0.00     0.059 A 
ATOM     10  C   UNL     1       4.067  -0.281   0.000  1.00  0.00     0.116 A 
ATOM     11  C   UNL     1       3.952   1.215   0.000  1.00  0.00     0.047 A 
ATOM     12  C   UNL     1       2.599   1.863   0.000  1.00  0.00     0.017 A 
ATOM     13  C   UNL     1       1.362   1.016   0.000  1.00  0.00     0.034 A 
ATOM     14  C   UNL     1       0.009   1.663   0.000  1.00  0.00     0.194 C 
ATOM     15  O   UNL     1      -0.106   3.159   0.000  1.00  0.00    -0.289 OA
ATOM     16  C   UNL     1      -1.229   0.816   0.000  1.00  0.00     0.038 A 
ATOM     17  C   UNL     1      -2.581   1.464   0.000  1.00  0.00     0.016 A 
ENDROOT
BRANCH   4  18
ATOM     18  O   UNL     1      -2.236  -3.023   0.000  1.00  0.00    -0.507 OA
ATOM     19  H   UNL     1       0.000   0.000   0.000  1.00  0.00     0.293 HD
ENDBRANCH   4  18
BRANCH  10  20
ATOM     20  O   UNL     1       5.420  -0.928   0.000  1.00  0.00    -0.508 OA
ATOM     21  H   UNL     1       0.000   0.000   0.000  1.00  0.00     0.293 HD
ENDBRANCH  10  20
TORSDOF 2
