REMARK SMILES C=C(C)[C@@H]1CC[C@]2(C)CC[C@]3(C)[C@H](C(O)C(OCC=C(C)C)[C@@H]4[C@@]5(C)CC[C@H](O)C(C)(C)[C@@H]5CC[C@]43C)[C@@H]12
REMARK SMILES IDX 17 1 16 2 4 3 5 4 38 5 6 6 13 7 7 8 11 9 14 10 9 11 10 12
REMARK SMILES IDX 36 13 35 14 23 15 34 16 24 17 33 18 26 19 30 20 27 21 28 22
REMARK SMILES IDX 8 23 12 24 37 25 25 26 31 27 32 28 2 29 1 30 3 31 15 32
REMARK SMILES IDX 29 34 18 36 19 37 20 38 21 39 22 40
REMARK H PARENT 15 33 29 35
ROOT
ATOM      1  O   UNL     1      -0.747  -2.103   0.000  1.00  0.00    -0.371 OA
ENDROOT
BRANCH   1   2
ATOM      2  C   UNL     1      -0.229  -0.695   0.000  1.00  0.00     0.151 C 
ATOM      3  C   UNL     1       4.423   0.297   0.000  1.00  0.00     0.018 C 
ATOM      4  C   UNL     1       5.670   1.132   0.000  1.00  0.00     0.009 C 
ATOM      5  C   UNL     1       3.244   1.225   0.000  1.00  0.00     0.008 C 
ATOM      6  C   UNL     1       5.261   2.575   0.000  1.00  0.00     0.008 C 
ATOM      7  C   UNL     1       1.766   0.969   0.000  1.00  0.00     0.031 C 
ATOM      8  C   UNL     1       3.762   2.632   0.000  1.00  0.00    -0.029 C 
ATOM      9  C   UNL     1       0.806   2.121   0.000  1.00  0.00    -0.021 C 
ATOM     10  C   UNL     1       1.249  -0.439   0.000  1.00  0.00     0.147 C 
ATOM     11  C   UNL     1       2.801   3.785   0.000  1.00  0.00     0.007 C 
ATOM     12  C   UNL     1       1.323   3.529   0.000  1.00  0.00     0.008 C 
ATOM     13  C   UNL     1      -0.672   1.865   0.000  1.00  0.00    -0.021 C 
ATOM     14  C   UNL     1      -1.633   3.017   0.000  1.00  0.00     0.008 C 
ATOM     15  C   UNL     1      -1.190   0.457   0.000  1.00  0.00     0.033 C 
ATOM     16  C   UNL     1      -3.111   2.761   0.000  1.00  0.00     0.005 C 
ATOM     17  C   UNL     1      -2.668   0.201   0.000  1.00  0.00    -0.023 C 
ATOM     18  C   UNL     1      -3.628   1.353   0.000  1.00  0.00     0.003 C 
ATOM     19  C   UNL     1      -3.185  -1.207   0.000  1.00  0.00     0.010 C 
ATOM     20  C   UNL     1      -5.106   1.098   0.000  1.00  0.00    -0.006 C 
ATOM     21  C   UNL     1      -4.663  -1.462   0.000  1.00  0.00     0.033 C 
ATOM     22  C   UNL     1      -5.624  -0.310   0.000  1.00  0.00     0.120 C 
ATOM     23  C   UNL     1       4.423   3.979   0.000  1.00  0.00     0.011 C 
ATOM     24  C   UNL     1      -0.155   3.273   0.000  1.00  0.00     0.012 C 
ATOM     25  C   UNL     1       0.288   0.713   0.000  1.00  0.00     0.012 C 
ATOM     26  C   UNL     1      -1.707  -0.951   0.000  1.00  0.00     0.012 C 
ATOM     27  C   UNL     1      -5.102   2.598   0.000  1.00  0.00     0.014 C 
ATOM     28  C   UNL     1      -6.583   1.363   0.000  1.00  0.00     0.014 C 
BRANCH   3  29
ATOM     29  C   UNL     1       4.366  -1.202   0.000  1.00  0.00    -0.077 C 
ATOM     30  C   UNL     1       3.040  -1.901   0.000  1.00  0.00     0.008 C 
ATOM     31  C   UNL     1       5.636  -2.000   0.000  1.00  0.00     0.039 C 
ENDBRANCH   3  29
BRANCH  10  32
ATOM     32  O   UNL     1       2.209  -1.591   0.000  1.00  0.00    -0.390 OA
ATOM     33  H   UNL     1       0.000   0.000   0.000  1.00  0.00     0.211 HD
ENDBRANCH  10  32
BRANCH  22  34
ATOM     34  O   UNL     1      -7.102  -0.566   0.000  1.00  0.00    -0.393 OA
ATOM     35  H   UNL     1       0.000   0.000   0.000  1.00  0.00     0.210 HD
ENDBRANCH  22  34
ENDBRANCH   1   2
BRANCH   1  36
ATOM     36  C   UNL     1       0.214  -3.255   0.000  1.00  0.00     0.188 C 
BRANCH  36  37
ATOM     37  C   UNL     1      -0.304  -4.663   0.000  1.00  0.00    -0.000 C 
BRANCH  37  38
ATOM     38  C   UNL     1       0.657  -5.815   0.000  1.00  0.00    -0.078 C 
ATOM     39  C   UNL     1       0.139  -7.223   0.000  1.00  0.00     0.039 C 
ATOM     40  C   UNL     1       2.135  -5.559   0.000  1.00  0.00     0.039 C 
ENDBRANCH  37  38
ENDBRANCH  36  37
ENDBRANCH   1  36
TORSDOF 7
