REMARK SMILES COc1ccc(C[C@H](C)[C@H](C)C(=O)c2ccc3c(c2)OCO3)cc1OC
REMARK SMILES IDX 7 1 6 2 3 3 4 4 24 5 5 6 23 7 2 8 1 9 25 10 26 11 8 12 9 13
REMARK SMILES IDX 10 14 11 15 12 16 13 17 14 18 15 19 19 20 16 21 18 22 17 23
REMARK SMILES IDX 20 24 22 25 21 26
REMARK H PARENT
ROOT
ATOM      1  C   UNL     1      -0.016   0.879   0.000  1.00  0.00     0.039 C 
ENDROOT
BRANCH   1   2
ATOM      2  C   UNL     1       1.275   0.115   0.000  1.00  0.00    -0.044 A 
ATOM      3  C   UNL     1       3.857  -1.412   0.000  1.00  0.00     0.160 A 
ATOM      4  C   UNL     1       2.550  -2.148   0.000  1.00  0.00     0.051 A 
ATOM      5  C   UNL     1       3.873   0.088   0.000  1.00  0.00     0.160 A 
ATOM      6  C   UNL     1       1.259  -1.385   0.000  1.00  0.00     0.008 A 
ATOM      7  C   UNL     1       2.582   0.851   0.000  1.00  0.00     0.054 A 
BRANCH   3   8
ATOM      8  O   UNL     1       5.148  -2.176   0.000  1.00  0.00    -0.493 OA
ATOM      9  C   UNL     1       5.132  -3.676   0.000  1.00  0.00     0.278 C 
ENDBRANCH   3   8
BRANCH   5  10
ATOM     10  O   UNL     1       5.179   0.824   0.000  1.00  0.00    -0.493 OA
ATOM     11  C   UNL     1       5.195   2.324   0.000  1.00  0.00     0.278 C 
ENDBRANCH   5  10
ENDBRANCH   1   2
BRANCH   1  12
ATOM     12  C   UNL     1      -0.001   2.379   0.000  1.00  0.00     0.001 C 
ATOM     13  C   UNL     1       1.306   3.115   0.000  1.00  0.00     0.009 C 
BRANCH  12  14
ATOM     14  C   UNL     1      -1.292   3.143   0.000  1.00  0.00     0.061 C 
ATOM     15  C   UNL     1      -1.276   4.642   0.000  1.00  0.00     0.016 C 
BRANCH  14  16
ATOM     16  C   UNL     1      -2.598   2.406   0.000  1.00  0.00     0.166 C 
ATOM     17  O   UNL     1      -3.889   3.170   0.000  1.00  0.00    -0.294 OA
BRANCH  16  18
ATOM     18  C   UNL     1      -2.614   0.906   0.000  1.00  0.00     0.022 A 
ATOM     19  C   UNL     1      -1.323   0.143   0.000  1.00  0.00     0.016 A 
ATOM     20  C   UNL     1      -3.921   0.170   0.000  1.00  0.00     0.062 A 
ATOM     21  C   UNL     1      -1.339  -1.357   0.000  1.00  0.00     0.051 A 
ATOM     22  C   UNL     1      -3.937  -1.330   0.000  1.00  0.00     0.166 A 
ATOM     23  C   UNL     1      -2.646  -2.094   0.000  1.00  0.00     0.165 A 
ATOM     24  O   UNL     1      -5.062  -2.322   0.000  1.00  0.00    -0.454 OA
ATOM     25  O   UNL     1      -2.973  -3.557   0.000  1.00  0.00    -0.454 OA
ATOM     26  C   UNL     1      -4.467  -3.698   0.000  1.00  0.00     0.468 C 
ENDBRANCH  16  18
ENDBRANCH  14  16
ENDBRANCH  12  14
ENDBRANCH   1  12
TORSDOF 7
