REMARK SMILES CCC=CCC[C@H]1CCc2cc(=O)c3cc(OC)ccc3n2C1
REMARK SMILES IDX 5 1 4 2 3 3 2 4 1 5 6 6 7 7 8 8 23 9 9 10 22 11 10 12 21 13
REMARK SMILES IDX 11 14 20 15 14 16 12 17 19 18 15 19 16 20 13 21 17 22 18 23
REMARK H PARENT
ROOT
ATOM      1  C   UNL     1      -4.474  -0.133   0.000  1.00  0.00     0.027 C 
ENDROOT
BRANCH   1   2
ATOM      2  C   UNL     1      -5.683  -1.021   0.000  1.00  0.00    -0.031 C 
BRANCH   2   3
ATOM      3  C   UNL     1      -7.057  -0.418   0.000  1.00  0.00    -0.032 C 
BRANCH   3   4
ATOM      4  C   UNL     1      -8.266  -1.306   0.000  1.00  0.00     0.023 C 
ATOM      5  C   UNL     1      -9.639  -0.703   0.000  1.00  0.00     0.008 C 
ENDBRANCH   3   4
ENDBRANCH   2   3
ENDBRANCH   1   2
BRANCH   1   6
ATOM      6  C   UNL     1      -3.101  -0.736   0.000  1.00  0.00     0.009 C 
BRANCH   6   7
ATOM      7  C   UNL     1      -1.892   0.152   0.000  1.00  0.00     0.009 C 
ATOM      8  C   UNL     1      -2.056   1.643   0.000  1.00  0.00     0.012 C 
ATOM      9  C   UNL     1      -0.518  -0.451   0.000  1.00  0.00     0.126 C 
ATOM     10  C   UNL     1      -0.848   2.531   0.000  1.00  0.00     0.054 C 
ATOM     11  N   UNL     1       0.691   0.437   0.000  1.00  0.00    -0.344 N 
ATOM     12  C   UNL     1       0.526   1.928   0.000  1.00  0.00     0.022 A 
ATOM     13  C   UNL     1       2.064  -0.166   0.000  1.00  0.00     0.052 A 
ATOM     14  C   UNL     1       1.735   2.816   0.000  1.00  0.00     0.074 A 
ATOM     15  C   UNL     1       2.228  -1.657   0.000  1.00  0.00     0.031 A 
ATOM     16  C   UNL     1       3.273   0.722   0.000  1.00  0.00     0.049 A 
ATOM     17  C   UNL     1       3.108   2.213   0.000  1.00  0.00     0.189 A 
ATOM     18  C   UNL     1       3.602  -2.260   0.000  1.00  0.00     0.048 A 
ATOM     19  C   UNL     1       4.646   0.119   0.000  1.00  0.00     0.060 A 
ATOM     20  C   UNL     1       4.811  -1.372   0.000  1.00  0.00     0.119 A 
ATOM     21  O   UNL     1       4.317   3.101   0.000  1.00  0.00    -0.289 OA
BRANCH  20  22
ATOM     22  O   UNL     1       6.184  -1.975   0.000  1.00  0.00    -0.497 OA
ATOM     23  C   UNL     1       6.349  -3.466   0.000  1.00  0.00     0.278 C 
ENDBRANCH  20  22
ENDBRANCH   6   7
ENDBRANCH   1   6
TORSDOF 6
