REMARK SMILES COc1c(O)c(CC=C(C)C)c(O)c2c(=O)c3cccc(O)c3n(C)c12
REMARK SMILES IDX 7 1 6 2 3 3 4 4 26 5 14 6 24 7 12 8 15 9 23 10 17 11 21 12
REMARK SMILES IDX 18 13 20 14 19 15 25 16 16 17 2 18 1 19 5 20 13 22 22 24
REMARK SMILES IDX 8 26 9 27 10 28 11 29
REMARK H PARENT 5 21 13 23 22 25
ROOT
ATOM      1  C   UNL     1      -3.727  -0.309   0.000  1.00  0.00     0.070 C 
ENDROOT
BRANCH   1   2
ATOM      2  C   UNL     1      -2.237  -0.487   0.000  1.00  0.00     0.044 A 
ATOM      3  C   UNL     1      -0.157  -2.044   0.000  1.00  0.00     0.185 A 
ATOM      4  C   UNL     1      -1.647  -1.866   0.000  1.00  0.00     0.167 A 
ATOM      5  C   UNL     1       0.742  -0.843   0.000  1.00  0.00     0.103 A 
ATOM      6  C   UNL     1       0.151   0.535   0.000  1.00  0.00     0.092 A 
ATOM      7  N   UNL     1       2.231  -1.021   0.000  1.00  0.00    -0.337 N 
ATOM      8  C   UNL     1      -1.338   0.713   0.000  1.00  0.00     0.136 A 
ATOM      9  C   UNL     1       1.050   1.736   0.000  1.00  0.00     0.201 A 
ATOM     10  C   UNL     1       3.130   0.179   0.000  1.00  0.00     0.095 A 
ATOM     11  C   UNL     1       2.539   1.558   0.000  1.00  0.00     0.050 A 
ATOM     12  C   UNL     1       4.619   0.002   0.000  1.00  0.00     0.139 A 
ATOM     13  C   UNL     1       3.438   2.759   0.000  1.00  0.00     0.014 A 
ATOM     14  C   UNL     1       5.518   1.202   0.000  1.00  0.00     0.048 A 
ATOM     15  C   UNL     1       4.928   2.581   0.000  1.00  0.00     0.005 A 
ATOM     16  C   UNL     1       2.822  -2.400   0.000  1.00  0.00     0.150 C 
ATOM     17  O   UNL     1       0.459   3.115   0.000  1.00  0.00    -0.288 OA
BRANCH   3  18
ATOM     18  O   UNL     1       0.433  -3.423   0.000  1.00  0.00    -0.491 OA
ATOM     19  C   UNL     1      -0.465  -4.624   0.000  1.00  0.00     0.278 C 
ENDBRANCH   3  18
BRANCH   4  20
ATOM     20  O   UNL     1      -2.545  -3.067   0.000  1.00  0.00    -0.504 OA
ATOM     21  H   UNL     1       0.000   0.000   0.000  1.00  0.00     0.293 HD
ENDBRANCH   4  20
BRANCH   8  22
ATOM     22  O   UNL     1      -1.929   2.092   0.000  1.00  0.00    -0.507 OA
ATOM     23  H   UNL     1       0.000   0.000   0.000  1.00  0.00     0.293 HD
ENDBRANCH   8  22
BRANCH  12  24
ATOM     24  O   UNL     1       5.210  -1.377   0.000  1.00  0.00    -0.506 OA
ATOM     25  H   UNL     1       0.000   0.000   0.000  1.00  0.00     0.293 HD
ENDBRANCH  12  24
ENDBRANCH   1   2
BRANCH   1  26
ATOM     26  C   UNL     1      -4.317   1.069   0.000  1.00  0.00    -0.023 C 
BRANCH  26  27
ATOM     27  C   UNL     1      -5.806   1.247   0.000  1.00  0.00    -0.080 C 
ATOM     28  C   UNL     1      -6.397   2.626   0.000  1.00  0.00     0.039 C 
ATOM     29  C   UNL     1      -6.705   0.046   0.000  1.00  0.00     0.039 C 
ENDBRANCH  26  27
ENDBRANCH   1  26
TORSDOF 7
