REMARK SMILES C[C@@H]1CC[C@]2(C(=O)O)CC[C@]3(C)C(=CCC4[C@@]5(C)C[C@@H](O)[C@H](O)[C@@](C)(CO)C5CC[C@]43C)C2[C@H]1C
REMARK SMILES IDX 1 1 2 2 3 3 4 4 5 5 9 6 10 7 11 8 12 9 13 10 14 11 15 12
REMARK SMILES IDX 16 13 17 14 18 15 19 16 20 17 22 18 24 19 25 20 28 21 29 22
REMARK SMILES IDX 30 23 31 24 32 25 33 26 34 27 35 28 6 29 7 30 8 31 26 33
REMARK SMILES IDX 27 34 21 36 23 38
REMARK H PARENT 8 32 27 35 21 37 23 39
ROOT
ATOM      1  C   UNL     1      -6.348  -3.130   0.000  1.00  0.00     0.008 C 
ATOM      2  C   UNL     1      -5.585  -1.839   0.000  1.00  0.00    -0.011 C 
ATOM      3  C   UNL     1      -6.322  -0.532   0.000  1.00  0.00     0.005 C 
ATOM      4  C   UNL     1      -5.559   0.759   0.000  1.00  0.00     0.020 C 
ATOM      5  C   UNL     1      -4.059   0.744   0.000  1.00  0.00     0.075 C 
ATOM      6  C   UNL     1      -3.296   2.035   0.000  1.00  0.00     0.020 C 
ATOM      7  C   UNL     1      -1.796   2.020   0.000  1.00  0.00     0.013 C 
ATOM      8  C   UNL     1      -1.059   0.714   0.000  1.00  0.00    -0.006 C 
ATOM      9  C   UNL     1      -0.322  -0.593   0.000  1.00  0.00     0.017 C 
ATOM     10  C   UNL     1      -1.822  -0.578   0.000  1.00  0.00    -0.063 C 
ATOM     11  C   UNL     1      -1.085  -1.884   0.000  1.00  0.00    -0.027 C 
ATOM     12  C   UNL     1       0.414  -1.900   0.000  1.00  0.00     0.032 C 
ATOM     13  C   UNL     1       1.178  -0.608   0.000  1.00  0.00     0.006 C 
ATOM     14  C   UNL     1       2.678  -0.624   0.000  1.00  0.00    -0.023 C 
ATOM     15  C   UNL     1       1.914  -1.915   0.000  1.00  0.00     0.012 C 
ATOM     16  C   UNL     1       3.414  -1.930   0.000  1.00  0.00     0.042 C 
ATOM     17  C   UNL     1       4.914  -1.945   0.000  1.00  0.00     0.144 C 
ATOM     18  C   UNL     1       5.677  -0.654   0.000  1.00  0.00     0.151 C 
ATOM     19  C   UNL     1       4.941   0.653   0.000  1.00  0.00     0.022 C 
ATOM     20  C   UNL     1       4.695   2.132   0.000  1.00  0.00     0.017 C 
ATOM     21  C   UNL     1       3.441   0.668   0.000  1.00  0.00     0.006 C 
ATOM     22  C   UNL     1       2.704   1.974   0.000  1.00  0.00     0.005 C 
ATOM     23  C   UNL     1       1.204   1.990   0.000  1.00  0.00     0.008 C 
ATOM     24  C   UNL     1       0.441   0.698   0.000  1.00  0.00    -0.020 C 
ATOM     25  C   UNL     1      -0.296   2.005   0.000  1.00  0.00     0.012 C 
ATOM     26  C   UNL     1      -3.322  -0.562   0.000  1.00  0.00     0.036 C 
ATOM     27  C   UNL     1      -4.085  -1.854   0.000  1.00  0.00    -0.003 C 
ATOM     28  C   UNL     1      -3.349  -3.160   0.000  1.00  0.00     0.008 C 
ENDROOT
BRANCH   5  29
ATOM     29  C   UNL     1      -4.796   2.051   0.000  1.00  0.00     0.310 C 
ATOM     30  O   UNL     1      -6.296   2.066   0.000  1.00  0.00    -0.252 OA
BRANCH  29  31
ATOM     31  O   UNL     1      -4.032   3.342   0.000  1.00  0.00    -0.481 OA
ATOM     32  H   UNL     1       0.000   0.000   0.000  1.00  0.00     0.296 HD
ENDBRANCH  29  31
ENDBRANCH   5  29
BRANCH  19  33
ATOM     33  C   UNL     1       6.355   1.151   0.000  1.00  0.00     0.165 C 
BRANCH  33  34
ATOM     34  O   UNL     1       6.631   2.626   0.000  1.00  0.00    -0.396 OA
ATOM     35  H   UNL     1       0.000   0.000   0.000  1.00  0.00     0.210 HD
ENDBRANCH  33  34
ENDBRANCH  19  33
BRANCH  17  36
ATOM     36  O   UNL     1       5.651  -3.252   0.000  1.00  0.00    -0.390 OA
ATOM     37  H   UNL     1       0.000   0.000   0.000  1.00  0.00     0.211 HD
ENDBRANCH  17  36
BRANCH  18  38
ATOM     38  O   UNL     1       7.177  -0.669   0.000  1.00  0.00    -0.390 OA
ATOM     39  H   UNL     1       0.000   0.000   0.000  1.00  0.00     0.211 HD
ENDBRANCH  18  38
TORSDOF 6
