REMARK SMILES CCCCCC1=CCCCC1
REMARK SMILES IDX 3 1 2 2 1 3 4 4 5 5 6 6 7 7 11 8 8 9 10 10 9 11
REMARK H PARENT
ROOT
ATOM      1  C   UNL     1      -2.963  -0.407   0.000  1.00  0.00     0.000 C 
ENDROOT
BRANCH   1   2
ATOM      2  C   UNL     1      -4.098   0.574   0.000  1.00  0.00    -0.003 C 
ATOM      3  C   UNL     1      -5.515   0.080   0.000  1.00  0.00     0.004 C 
ENDBRANCH   1   2
BRANCH   1   4
ATOM      4  C   UNL     1      -1.546   0.087   0.000  1.00  0.00     0.004 C 
BRANCH   4   5
ATOM      5  C   UNL     1      -0.411  -0.893   0.000  1.00  0.00     0.030 C 
BRANCH   5   6
ATOM      6  C   UNL     1       1.006  -0.400   0.000  1.00  0.00    -0.074 C 
ATOM      7  C   UNL     1       1.287   1.073   0.000  1.00  0.00    -0.028 C 
ATOM      8  C   UNL     1       2.141  -1.380   0.000  1.00  0.00     0.030 C 
ATOM      9  C   UNL     1       2.703   1.567   0.000  1.00  0.00     0.027 C 
ATOM     10  C   UNL     1       3.558  -0.887   0.000  1.00  0.00     0.005 C 
ATOM     11  C   UNL     1       3.839   0.587   0.000  1.00  0.00     0.004 C 
ENDBRANCH   5   6
ENDBRANCH   4   5
ENDBRANCH   1   4
TORSDOF 4
