REMARK SMILES CC(=CCC[C@H](C)[C@@H]1CC[C@@]2(C)C3=CC[C@H]4C(C)(C)C(=O)CC[C@]4(C)[C@H]3CC[C@@]12C)OC=O
REMARK SMILES IDX 3 1 2 2 1 3 31 4 32 5 33 6 4 7 5 8 6 9 7 10 8 11 9 12 29 13
REMARK SMILES IDX 10 14 28 15 11 16 27 17 13 18 26 19 14 20 24 21 15 22 23 23
REMARK SMILES IDX 16 24 22 25 17 26 20 27 30 28 12 29 25 30 18 31 19 32 21 33
REMARK H PARENT
ROOT
ATOM      1  C   UNL     1       5.354  -1.636   0.000  1.00  0.00     0.015 C 
ENDROOT
BRANCH   1   2
ATOM      2  C   UNL     1       6.798  -2.043   0.000  1.00  0.00     0.100 C 
ATOM      3  C   UNL     1       7.168  -3.496   0.000  1.00  0.00     0.087 C 
BRANCH   2   4
ATOM      4  O   UNL     1       7.872  -0.996   0.000  1.00  0.00    -0.434 OA
BRANCH   4   5
ATOM      5  C   UNL     1       9.316  -1.403   0.000  1.00  0.00     0.452 C 
ATOM      6  O   UNL     1      10.390  -0.356   0.000  1.00  0.00    -0.256 OA
ENDBRANCH   4   5
ENDBRANCH   2   4
ENDBRANCH   1   2
BRANCH   1   7
ATOM      7  C   UNL     1       4.985  -0.182   0.000  1.00  0.00     0.031 C 
BRANCH   7   8
ATOM      8  C   UNL     1       3.541   0.225   0.000  1.00  0.00     0.008 C 
BRANCH   8   9
ATOM      9  C   UNL     1       3.171   1.678   0.000  1.00  0.00    -0.010 C 
ATOM     10  C   UNL     1       4.245   2.725   0.000  1.00  0.00     0.008 C 
BRANCH   9  11
ATOM     11  C   UNL     1       1.727   2.085   0.000  1.00  0.00    -0.001 C 
ATOM     12  C   UNL     1       1.208   3.492   0.000  1.00  0.00     0.005 C 
ATOM     13  C   UNL     1       0.550   1.156   0.000  1.00  0.00    -0.020 C 
ATOM     14  C   UNL     1      -0.291   3.433   0.000  1.00  0.00     0.012 C 
ATOM     15  C   UNL     1       0.452  -0.341   0.000  1.00  0.00     0.008 C 
ATOM     16  C   UNL     1      -0.698   1.989   0.000  1.00  0.00    -0.006 C 
ATOM     17  C   UNL     1      -0.893  -1.004   0.000  1.00  0.00     0.009 C 
ATOM     18  C   UNL     1      -2.043   1.325   0.000  1.00  0.00    -0.064 C 
ATOM     19  C   UNL     1      -2.141  -0.171   0.000  1.00  0.00     0.021 C 
ATOM     20  C   UNL     1      -3.290   2.159   0.000  1.00  0.00    -0.027 C 
ATOM     21  C   UNL     1      -3.486  -0.835   0.000  1.00  0.00    -0.022 C 
ATOM     22  C   UNL     1      -4.635   1.495   0.000  1.00  0.00     0.032 C 
ATOM     23  C   UNL     1      -3.583  -2.332   0.000  1.00  0.00     0.015 C 
ATOM     24  C   UNL     1      -4.733  -0.002   0.000  1.00  0.00     0.012 C 
ATOM     25  C   UNL     1      -4.929  -2.996   0.000  1.00  0.00     0.077 C 
ATOM     26  C   UNL     1      -6.078  -0.666   0.000  1.00  0.00     0.027 C 
ATOM     27  C   UNL     1      -6.176  -2.163   0.000  1.00  0.00     0.138 C 
ATOM     28  C   UNL     1       1.877   0.458   0.000  1.00  0.00     0.012 C 
ATOM     29  C   UNL     1      -1.851   2.948   0.000  1.00  0.00     0.017 C 
ATOM     30  C   UNL     1      -2.238  -1.668   0.000  1.00  0.00     0.012 C 
ATOM     31  C   UNL     1      -7.569  -0.830   0.000  1.00  0.00     0.020 C 
ATOM     32  C   UNL     1      -6.498   0.774   0.000  1.00  0.00     0.020 C 
ATOM     33  O   UNL     1      -7.521  -2.826   0.000  1.00  0.00    -0.299 OA
ENDBRANCH   9  11
ENDBRANCH   8   9
ENDBRANCH   7   8
ENDBRANCH   1   7
TORSDOF 7
