REMARK SMILES C=C/C(C)=C\C[C@]1(C)[C@H](C)[C@@H](OC(=O)CCC)[C@H](O)[C@@]23C(=CC(=O)C[C@@H]12)[C@@H](OC(C)=O)O[C@H]3OC(C)=O
REMARK SMILES IDX 7 1 8 2 9 3 10 4 11 5 18 6 20 7 21 8 22 9 23 10 24 11 25 12
REMARK SMILES IDX 26 13 27 14 32 15 33 16 6 17 5 18 3 19 4 20 2 21 1 22 12 23
REMARK SMILES IDX 13 24 14 25 15 26 16 27 17 28 19 29 34 31 35 32 36 33 37 34
REMARK SMILES IDX 28 35 29 36 30 37 31 38
REMARK H PARENT 19 30
ROOT
ATOM      1  C   UNL     1       0.952  -1.494   0.000  1.00  0.00    -0.018 C 
ATOM      2  C   UNL     1       1.122  -2.984   0.000  1.00  0.00     0.012 C 
ATOM      3  C   UNL     1       1.302  -0.035   0.000  1.00  0.00     0.036 C 
ATOM      4  C   UNL     1       2.740   0.391   0.000  1.00  0.00     0.012 C 
ATOM      5  C   UNL     1       0.213   0.997   0.000  1.00  0.00     0.209 C 
ATOM      6  C   UNL     1      -1.225   0.571   0.000  1.00  0.00     0.172 C 
ATOM      7  C   UNL     1      -1.575  -0.888   0.000  1.00  0.00     0.094 C 
ATOM      8  C   UNL     1      -3.013  -1.314   0.000  1.00  0.00     0.017 C 
ATOM      9  C   UNL     1      -3.362  -2.773   0.000  1.00  0.00     0.054 C 
ATOM     10  C   UNL     1      -2.274  -3.805   0.000  1.00  0.00     0.156 C 
ATOM     11  O   UNL     1      -2.624  -5.264   0.000  1.00  0.00    -0.295 OA
ATOM     12  C   UNL     1      -0.836  -3.379   0.000  1.00  0.00     0.085 C 
ATOM     13  C   UNL     1      -0.486  -1.920   0.000  1.00  0.00     0.023 C 
ATOM     14  C   UNL     1      -2.538  -1.597   0.000  1.00  0.00     0.343 C 
ATOM     15  O   UNL     1      -2.353  -0.901   0.000  1.00  0.00    -0.298 OA
ATOM     16  C   UNL     1      -1.819  -1.384   0.000  1.00  0.00     0.328 C 
ENDROOT
BRANCH   1  17
ATOM     17  C   UNL     1       2.449  -1.585   0.000  1.00  0.00     0.035 C 
BRANCH  17  18
ATOM     18  C   UNL     1       3.119  -2.927   0.000  1.00  0.00    -0.023 C 
BRANCH  18  19
ATOM     19  C   UNL     1       4.616  -3.019   0.000  1.00  0.00    -0.056 C 
ATOM     20  C   UNL     1       5.286  -4.361   0.000  1.00  0.00     0.044 C 
BRANCH  19  21
ATOM     21  C   UNL     1       5.444  -1.768   0.000  1.00  0.00    -0.005 C 
ATOM     22  C   UNL     1       6.941  -1.859   0.000  1.00  0.00     0.009 C 
ENDBRANCH  19  21
ENDBRANCH  18  19
ENDBRANCH  17  18
ENDBRANCH   1  17
BRANCH   5  23
ATOM     23  O   UNL     1       0.563   2.456   0.000  1.00  0.00    -0.459 OA
BRANCH  23  24
ATOM     24  C   UNL     1       2.001   2.882   0.000  1.00  0.00     0.306 C 
ATOM     25  O   UNL     1       3.090   1.850   0.000  1.00  0.00    -0.252 OA
BRANCH  24  26
ATOM     26  C   UNL     1       2.351   4.341   0.000  1.00  0.00     0.122 C 
BRANCH  26  27
ATOM     27  C   UNL     1       3.789   4.767   0.000  1.00  0.00     0.008 C 
ATOM     28  C   UNL     1       4.139   6.226   0.000  1.00  0.00     0.004 C 
ENDBRANCH  26  27
ENDBRANCH  24  26
ENDBRANCH  23  24
ENDBRANCH   5  23
BRANCH   6  29
ATOM     29  O   UNL     1      -2.031   1.836   0.000  1.00  0.00    -0.388 OA
ATOM     30  H   UNL     1       0.000   0.000   0.000  1.00  0.00     0.211 HD
ENDBRANCH   6  29
BRANCH  16  31
ATOM     31  O   UNL     1      -0.300   1.462   0.000  1.00  0.00    -0.435 OA
BRANCH  31  32
ATOM     32  C   UNL     1      -0.418   2.957   0.000  1.00  0.00     0.304 C 
ATOM     33  C   UNL     1       0.818   3.807   0.000  1.00  0.00     0.139 C 
ATOM     34  O   UNL     1      -1.772   3.602   0.000  1.00  0.00    -0.253 OA
ENDBRANCH  31  32
ENDBRANCH  16  31
BRANCH  14  35
ATOM     35  O   UNL     1      -5.362  -0.039   0.000  1.00  0.00    -0.432 OA
BRANCH  35  36
ATOM     36  C   UNL     1      -6.078   1.279   0.000  1.00  0.00     0.305 C 
ATOM     37  C   UNL     1      -7.578   1.318   0.000  1.00  0.00     0.139 C 
ATOM     38  O   UNL     1      -5.295   2.558   0.000  1.00  0.00    -0.253 OA
ENDBRANCH  35  36
ENDBRANCH  14  35
TORSDOF 13
