REMARK SMILES COC(=O)C[C@H]1[C@]2(C)C3=C(C)[C@H](c4ccoc4)C[C@H]3O[C@@H]2[C@H](O)[C@@H]2[C@]1(C)C(=O)C=C[C@@]2(C)C(=O)OC
REMARK SMILES IDX 6 1 7 2 8 3 9 4 10 5 11 6 12 7 18 8 19 9 20 10 21 11 22 12
REMARK SMILES IDX 24 13 25 14 26 15 27 16 28 17 29 18 30 19 31 20 32 21 5 22
REMARK SMILES IDX 3 23 4 24 2 25 1 26 23 27 33 29 34 30 35 31 36 32 13 33
REMARK SMILES IDX 17 34 14 35 16 36 15 37
REMARK H PARENT 23 28
ROOT
ATOM      1  C   UNL     1       0.619  -0.898   0.000  1.00  0.00     0.027 C 
ATOM      2  C   UNL     1      -0.140   0.396   0.000  1.00  0.00     0.024 C 
ATOM      3  C   UNL     1      -1.013  -0.825   0.000  1.00  0.00     0.019 C 
ATOM      4  C   UNL     1      -1.610   0.697   0.000  1.00  0.00    -0.033 C 
ATOM      5  C   UNL     1      -2.975   0.076   0.000  1.00  0.00    -0.063 C 
ATOM      6  C   UNL     1      -3.276  -1.393   0.000  1.00  0.00     0.040 C 
ATOM      7  C   UNL     1      -3.987   1.184   0.000  1.00  0.00     0.051 C 
ATOM      8  C   UNL     1      -3.247   2.488   0.000  1.00  0.00     0.049 C 
ATOM      9  C   UNL     1      -1.777   2.187   0.000  1.00  0.00     0.146 C 
ATOM     10  O   UNL     1      -0.411   2.807   0.000  1.00  0.00    -0.367 OA
ATOM     11  C   UNL     1       0.600   1.700   0.000  1.00  0.00     0.158 C 
ATOM     12  C   UNL     1       2.100   1.711   0.000  1.00  0.00     0.149 C 
ATOM     13  C   UNL     1       2.860   0.417   0.000  1.00  0.00     0.055 C 
ATOM     14  C   UNL     1       2.119  -0.887   0.000  1.00  0.00     0.041 C 
ATOM     15  C   UNL     1       1.379  -2.192   0.000  1.00  0.00     0.021 C 
ATOM     16  C   UNL     1       2.879  -2.180   0.000  1.00  0.00     0.162 C 
ATOM     17  O   UNL     1       2.138  -3.485   0.000  1.00  0.00    -0.294 OA
ATOM     18  C   UNL     1       4.379  -2.170   0.000  1.00  0.00     0.044 C 
ATOM     19  C   UNL     1       5.119  -0.865   0.000  1.00  0.00    -0.005 C 
ATOM     20  C   UNL     1       4.360   0.429   0.000  1.00  0.00     0.090 C 
ATOM     21  C   UNL     1       4.088   1.904   0.000  1.00  0.00     0.029 C 
ENDROOT
BRANCH   1  22
ATOM     22  C   UNL     1      -0.121  -2.203   0.000  1.00  0.00     0.128 C 
BRANCH  22  23
ATOM     23  C   UNL     1      -1.621  -2.213   0.000  1.00  0.00     0.305 C 
ATOM     24  O   UNL     1      -2.381  -0.920   0.000  1.00  0.00    -0.252 OA
BRANCH  23  25
ATOM     25  O   UNL     1      -2.361  -3.518   0.000  1.00  0.00    -0.469 OA
ATOM     26  C   UNL     1      -3.861  -3.529   0.000  1.00  0.00     0.282 C 
ENDBRANCH  23  25
ENDBRANCH  22  23
ENDBRANCH   1  22
BRANCH  12  27
ATOM     27  O   UNL     1       2.841   3.015   0.000  1.00  0.00    -0.390 OA
ATOM     28  H   UNL     1       0.000   0.000   0.000  1.00  0.00     0.211 HD
ENDBRANCH  12  27
BRANCH  20  29
ATOM     29  C   UNL     1       5.766   0.952   0.000  1.00  0.00     0.315 C 
ATOM     30  O   UNL     1       6.015   2.431   0.000  1.00  0.00    -0.251 OA
BRANCH  29  31
ATOM     31  O   UNL     1       6.922  -0.004   0.000  1.00  0.00    -0.468 OA
ATOM     32  C   UNL     1       8.327   0.520   0.000  1.00  0.00     0.282 C 
ENDBRANCH  29  31
ENDBRANCH  20  29
BRANCH   7  33
ATOM     33  C   UNL     1      -5.478   1.016   0.000  1.00  0.00    -0.002 A 
ATOM     34  C   UNL     1      -6.218  -0.288   0.000  1.00  0.00     0.199 A 
ATOM     35  C   UNL     1      -6.490   2.123   0.000  1.00  0.00     0.046 A 
ATOM     36  O   UNL     1      -7.688   0.013   0.000  1.00  0.00    -0.472 OA
ATOM     37  C   UNL     1      -7.856   1.503   0.000  1.00  0.00     0.195 A 
ENDBRANCH   7  33
TORSDOF 7
