REMARK SMILES C=C[C@@]1(C)CCC2[C@@](C)(C[C@H](OC(=O)CC(=O)OCCCC)[C@H]3C(C)(C)CCC[C@]23C)O1
REMARK SMILES IDX 15 1 13 2 14 3 12 4 11 5 3 6 5 7 32 8 6 9 8 10 7 11 10 12
REMARK SMILES IDX 30 13 29 14 23 15 28 16 24 17 27 18 4 19 9 20 31 21 25 22
REMARK SMILES IDX 26 23 2 24 1 25 16 26 17 27 18 28 19 29 20 30 21 31 22 32
REMARK H PARENT
ROOT
ATOM      1  C   UNL     1       3.514   0.769   0.000  1.00  0.00     0.245 C 
ENDROOT
BRANCH   1   2
ATOM      2  C   UNL     1       2.083   0.320   0.000  1.00  0.00     0.317 C 
ATOM      3  O   UNL     1       1.755  -1.144   0.000  1.00  0.00    -0.252 OA
BRANCH   2   4
ATOM      4  O   UNL     1       0.979   1.335   0.000  1.00  0.00    -0.461 OA
BRANCH   4   5
ATOM      5  C   UNL     1      -0.453   0.887   0.000  1.00  0.00     0.183 C 
ATOM      6  C   UNL     1      -3.970  -2.938   0.000  1.00  0.00     0.084 C 
ATOM      7  C   UNL     1      -5.074  -1.923   0.000  1.00  0.00     0.040 C 
ATOM      8  O   UNL     1      -2.539  -2.489   0.000  1.00  0.00    -0.365 OA
ATOM      9  C   UNL     1      -4.747  -0.459   0.000  1.00  0.00     0.010 C 
ATOM     10  C   UNL     1      -2.211  -1.026   0.000  1.00  0.00     0.073 C 
ATOM     11  C   UNL     1      -3.316  -0.010   0.000  1.00  0.00     0.028 C 
ATOM     12  C   UNL     1      -0.780  -0.577   0.000  1.00  0.00     0.081 C 
ATOM     13  C   UNL     1      -2.988   1.454   0.000  1.00  0.00    -0.020 C 
ATOM     14  C   UNL     1      -4.093   2.469   0.000  1.00  0.00     0.007 C 
ATOM     15  C   UNL     1      -1.557   1.902   0.000  1.00  0.00     0.042 C 
ATOM     16  C   UNL     1      -3.765   3.933   0.000  1.00  0.00     0.001 C 
ATOM     17  C   UNL     1      -1.230   3.366   0.000  1.00  0.00    -0.029 C 
ATOM     18  C   UNL     1      -2.334   4.381   0.000  1.00  0.00     0.007 C 
ATOM     19  C   UNL     1      -3.280  -4.270   0.000  1.00  0.00     0.047 C 
ATOM     20  C   UNL     1      -1.107  -2.041   0.000  1.00  0.00     0.043 C 
ATOM     21  C   UNL     1      -4.420   1.005   0.000  1.00  0.00     0.012 C 
ATOM     22  C   UNL     1      -0.422   4.630   0.000  1.00  0.00     0.011 C 
ATOM     23  C   UNL     1       0.155   2.790   0.000  1.00  0.00     0.011 C 
BRANCH   6  24
ATOM     24  C   UNL     1      -5.162  -3.849   0.000  1.00  0.00    -0.000 C 
ATOM     25  C   UNL     1      -6.546  -3.272   0.000  1.00  0.00     0.007 C 
ENDBRANCH   6  24
ENDBRANCH   4   5
ENDBRANCH   2   4
ENDBRANCH   1   2
BRANCH   1  26
ATOM     26  C   UNL     1       4.618  -0.247   0.000  1.00  0.00     0.317 C 
ATOM     27  O   UNL     1       4.291  -1.710   0.000  1.00  0.00    -0.252 OA
BRANCH  26  28
ATOM     28  O   UNL     1       6.050   0.202   0.000  1.00  0.00    -0.465 OA
BRANCH  28  29
ATOM     29  C   UNL     1       7.154  -0.813   0.000  1.00  0.00     0.233 C 
BRANCH  29  30
ATOM     30  C   UNL     1       8.585  -0.365   0.000  1.00  0.00     0.041 C 
BRANCH  30  31
ATOM     31  C   UNL     1       9.689  -1.380   0.000  1.00  0.00     0.000 C 
ATOM     32  C   UNL     1      11.120  -0.932   0.000  1.00  0.00     0.004 C 
ENDBRANCH  30  31
ENDBRANCH  29  30
ENDBRANCH  28  29
ENDBRANCH  26  28
ENDBRANCH   1  26
TORSDOF 9
