REMARK SMILES COc1cc2oc(-c3ccc4c(c3)OCO4)cc(=O)c2c2c1C=CC(C)(C)O2
REMARK SMILES IDX 3 1 4 2 5 3 20 4 21 5 22 6 23 7 24 8 25 9 26 10 27 11 28 12
REMARK SMILES IDX 18 13 19 14 17 15 7 16 6 17 2 18 1 19 8 20 9 21 13 22 10 23
REMARK SMILES IDX 12 24 11 25 14 26 16 27 15 28
REMARK H PARENT
ROOT
ATOM      1  C   UNL     1       3.129  -2.201   0.000  1.00  0.00     0.133 A 
ATOM      2  C   UNL     1       1.637  -2.353   0.000  1.00  0.00     0.095 A 
ATOM      3  C   UNL     1       0.759  -1.136   0.000  1.00  0.00     0.146 A 
ATOM      4  C   UNL     1       1.375   0.232   0.000  1.00  0.00     0.108 A 
ATOM      5  C   UNL     1       2.867   0.383   0.000  1.00  0.00     0.146 A 
ATOM      6  C   UNL     1       3.744  -0.833   0.000  1.00  0.00     0.060 A 
ATOM      7  C   UNL     1       5.237  -0.682   0.000  1.00  0.00     0.015 C 
ATOM      8  C   UNL     1       5.851   0.686   0.000  1.00  0.00     0.021 C 
ATOM      9  C   UNL     1       4.974   1.903   0.000  1.00  0.00     0.122 C 
ATOM     10  C   UNL     1       4.566   3.346   0.000  1.00  0.00     0.061 C 
ATOM     11  C   UNL     1       6.325   2.556   0.000  1.00  0.00     0.061 C 
ATOM     12  O   UNL     1       3.482   1.751   0.000  1.00  0.00    -0.482 OA
ATOM     13  C   UNL     1       0.497   1.449   0.000  1.00  0.00     0.197 A 
ATOM     14  O   UNL     1       1.112   2.817   0.000  1.00  0.00    -0.289 OA
ATOM     15  C   UNL     1      -0.995   1.297   0.000  1.00  0.00     0.100 A 
ATOM     16  C   UNL     1      -1.610  -0.071   0.000  1.00  0.00     0.138 A 
ATOM     17  O   UNL     1      -0.733  -1.288   0.000  1.00  0.00    -0.456 OA
ENDROOT
BRANCH   1  18
ATOM     18  O   UNL     1       4.006  -3.418   0.000  1.00  0.00    -0.496 OA
ATOM     19  C   UNL     1       3.392  -4.786   0.000  1.00  0.00     0.278 C 
ENDBRANCH   1  18
BRANCH  16  20
ATOM     20  C   UNL     1      -3.103  -0.222   0.000  1.00  0.00     0.021 A 
ATOM     21  C   UNL     1      -3.717  -1.591   0.000  1.00  0.00     0.016 A 
ATOM     22  C   UNL     1      -3.980   0.994   0.000  1.00  0.00     0.062 A 
ATOM     23  C   UNL     1      -5.210  -1.742   0.000  1.00  0.00     0.051 A 
ATOM     24  C   UNL     1      -5.472   0.843   0.000  1.00  0.00     0.166 A 
ATOM     25  C   UNL     1      -6.087  -0.525   0.000  1.00  0.00     0.165 A 
ATOM     26  O   UNL     1      -6.583   1.851   0.000  1.00  0.00    -0.454 OA
ATOM     27  O   UNL     1      -7.578  -0.363   0.000  1.00  0.00    -0.454 OA
ATOM     28  C   UNL     1      -7.885   1.105   0.000  1.00  0.00     0.468 C 
ENDBRANCH  16  20
TORSDOF 2
