REMARK SMILES C[C@H]1CC[C@]2(C)C(C(=O)O)=CCC[C@H]2[C@]1(C)CCc1ccoc1
REMARK SMILES IDX 1 1 2 2 3 3 4 4 5 5 6 6 7 7 11 8 12 9 13 10 14 11 15 12
REMARK SMILES IDX 16 13 17 14 18 15 19 16 23 17 20 18 22 19 21 20 8 21 9 22
REMARK SMILES IDX 10 23
REMARK H PARENT 10 24
ROOT
ATOM      1  C   UNL     1      -1.667  -2.433   0.000  1.00  0.00     0.008 C 
ATOM      2  C   UNL     1      -0.371  -1.678   0.000  1.00  0.00    -0.008 C 
ATOM      3  C   UNL     1       0.931  -2.424   0.000  1.00  0.00     0.005 C 
ATOM      4  C   UNL     1       2.227  -1.669   0.000  1.00  0.00     0.012 C 
ATOM      5  C   UNL     1       2.222  -0.169   0.000  1.00  0.00     0.003 C 
ATOM      6  C   UNL     1       3.524  -0.915   0.000  1.00  0.00     0.017 C 
ATOM      7  C   UNL     1       3.518   0.585   0.000  1.00  0.00     0.039 C 
ATOM      8  C   UNL     1       3.513   2.085   0.000  1.00  0.00    -0.015 C 
ATOM      9  C   UNL     1       2.212   2.831   0.000  1.00  0.00     0.028 C 
ATOM     10  C   UNL     1       0.915   2.076   0.000  1.00  0.00     0.009 C 
ATOM     11  C   UNL     1       0.920   0.576   0.000  1.00  0.00     0.006 C 
ATOM     12  C   UNL     1      -0.376  -0.178   0.000  1.00  0.00    -0.026 C 
ATOM     13  C   UNL     1      -0.894   1.230   0.000  1.00  0.00     0.012 C 
ENDROOT
BRANCH  12  14
ATOM     14  C   UNL     1      -1.852  -0.444   0.000  1.00  0.00     0.012 C 
BRANCH  14  15
ATOM     15  C   UNL     1      -2.821   0.702   0.000  1.00  0.00     0.039 C 
BRANCH  15  16
ATOM     16  C   UNL     1      -4.297   0.436   0.000  1.00  0.00    -0.010 A 
ATOM     17  C   UNL     1      -4.950  -0.914   0.000  1.00  0.00     0.198 A 
ATOM     18  C   UNL     1      -5.379   1.475   0.000  1.00  0.00     0.045 A 
ATOM     19  O   UNL     1      -6.436  -0.711   0.000  1.00  0.00    -0.472 OA
ATOM     20  C   UNL     1      -6.701   0.766   0.000  1.00  0.00     0.195 A 
ENDBRANCH  15  16
ENDBRANCH  14  15
ENDBRANCH  12  14
BRANCH   7  21
ATOM     21  C   UNL     1       4.820  -0.160   0.000  1.00  0.00     0.331 C 
ATOM     22  O   UNL     1       4.825  -1.660   0.000  1.00  0.00    -0.247 OA
BRANCH  21  23
ATOM     23  O   UNL     1       6.117   0.594   0.000  1.00  0.00    -0.478 OA
ATOM     24  H   UNL     1       0.000   0.000   0.000  1.00  0.00     0.297 HD
ENDBRANCH  21  23
ENDBRANCH   7  21
TORSDOF 5
