REMARK SMILES C=C(C)[C@@H]1CC[C@@]2(C)OC3=C(C[C@@H]12)C(=O)C(OC)CC3O
REMARK SMILES IDX 4 1 5 2 6 3 7 4 8 5 9 6 10 7 11 8 12 9 13 10 14 11 15 12
REMARK SMILES IDX 16 13 19 14 20 15 2 16 1 17 3 18 21 19 17 21 18 22
REMARK H PARENT 21 20
ROOT
ATOM      1  C   UNL     1       3.246  -0.317   0.000  1.00  0.00     0.022 C 
ATOM      2  C   UNL     1       3.950   1.008   0.000  1.00  0.00     0.012 C 
ATOM      3  C   UNL     1       2.907   2.086   0.000  1.00  0.00     0.049 C 
ATOM      4  C   UNL     1       1.559   1.428   0.000  1.00  0.00     0.110 C 
ATOM      5  C   UNL     1       1.506   2.927   0.000  1.00  0.00     0.057 C 
ATOM      6  O   UNL     1       0.168   1.988   0.000  1.00  0.00    -0.488 OA
ATOM      7  C   UNL     1      -1.014   1.064   0.000  1.00  0.00     0.132 C 
ATOM      8  C   UNL     1      -0.804  -0.421   0.000  1.00  0.00     0.039 C 
ATOM      9  C   UNL     1       0.588  -0.982   0.000  1.00  0.00     0.051 C 
ATOM     10  C   UNL     1       1.769  -0.058   0.000  1.00  0.00     0.045 C 
ATOM     11  C   UNL     1      -1.985  -1.345   0.000  1.00  0.00     0.191 C 
ATOM     12  O   UNL     1      -1.775  -2.831   0.000  1.00  0.00    -0.291 OA
ATOM     13  C   UNL     1      -3.376  -0.785   0.000  1.00  0.00     0.192 C 
ATOM     14  C   UNL     1      -3.586   0.701   0.000  1.00  0.00     0.080 C 
ATOM     15  C   UNL     1      -2.405   1.625   0.000  1.00  0.00     0.183 C 
ENDROOT
BRANCH   1  16
ATOM     16  C   UNL     1       3.905  -1.665   0.000  1.00  0.00    -0.077 C 
ATOM     17  C   UNL     1       3.067  -2.909   0.000  1.00  0.00     0.008 C 
ATOM     18  C   UNL     1       5.401  -1.768   0.000  1.00  0.00     0.039 C 
ENDBRANCH   1  16
BRANCH  15  19
ATOM     19  O   UNL     1      -2.615   3.110   0.000  1.00  0.00    -0.385 OA
ATOM     20  H   UNL     1       0.000   0.000   0.000  1.00  0.00     0.211 HD
ENDBRANCH  15  19
BRANCH  13  21
ATOM     21  O   UNL     1      -4.558  -1.709   0.000  1.00  0.00    -0.373 OA
ATOM     22  C   UNL     1      -5.949  -1.148   0.000  1.00  0.00     0.196 C 
ENDBRANCH  13  21
TORSDOF 3
