REMARK SMILES CC(=O)N1c2ccccc2[C@@]23CCN4CC5=CCO[C@@H](O)[C@@H]([C@H]12)[C@H]5C[C@H]43
REMARK SMILES IDX 4 1 5 2 6 3 7 4 8 5 9 6 10 7 11 8 12 9 13 10 14 11 15 12
REMARK SMILES IDX 16 13 22 14 23 15 24 16 25 17 26 18 2 19 1 20 3 21 20 22
REMARK SMILES IDX 19 23 18 24 21 26 17 28
REMARK H PARENT 21 27
REMARK Flexibility Score:    8.900
ROOT
ATOM      1  N   UNL     1       0.943  -1.403   0.000  1.00  0.00    -0.308 N 
ATOM      2  C   UNL     1       2.343  -0.863   0.000  1.00  0.00     0.048 A 
ATOM      3  C   UNL     1       3.681  -1.541   0.000  1.00  0.00     0.026 A 
ATOM      4  C   UNL     1       4.937  -0.721   0.000  1.00  0.00     0.002 A 
ATOM      5  C   UNL     1       4.855   0.776   0.000  1.00  0.00     0.000 A 
ATOM      6  C   UNL     1       3.518   1.455   0.000  1.00  0.00     0.006 A 
ATOM      7  C   UNL     1       2.261   0.635   0.000  1.00  0.00    -0.014 A 
ATOM      8  C   UNL     1       0.811   1.020   0.000  1.00  0.00     0.036 C 
ATOM      9  C   UNL     1       1.012   2.304   0.000  1.00  0.00     0.031 C 
ATOM     10  C   UNL     1       0.986   2.135   0.000  1.00  0.00     0.086 C 
ATOM     11  N   UNL     1       1.186   3.418   0.000  1.00  0.00    -0.295 NA
ATOM     12  C   UNL     1      -2.730   2.650   0.000  1.00  0.00     0.116 C 
ATOM     13  C   UNL     1      -3.655   1.469   0.000  1.00  0.00    -0.054 C 
ATOM     14  C   UNL     1      -1.501  -0.164   0.000  1.00  0.00     0.077 C 
ATOM     15  C   UNL     1      -0.003  -0.239   0.000  1.00  0.00     0.111 C 
ATOM     16  C   UNL     1      -2.185   1.171   0.000  1.00  0.00     0.028 C 
ATOM     17  C   UNL     1      -1.370   2.431   0.000  1.00  0.00     0.028 C 
ATOM     18  C   UNL     1       0.128   2.356   0.000  1.00  0.00     0.070 C 
ENDROOT
BRANCH   1  19
ATOM     19  C   UNL     1       0.558  -2.853   0.000  1.00  0.00     0.224 C 
ATOM     20  C   UNL     1       1.621  -3.911   0.000  1.00  0.00     0.115 C 
ATOM     21  O   UNL     1      -0.831  -3.417   0.000  1.00  0.00    -0.275 OA
ENDBRANCH   1  19
BRANCH  14  22
ATOM     22  C   UNL     1      -2.119  -1.531   0.000  1.00  0.00     0.252 C 
BRANCH  22  23
ATOM     23  O   UNL     1      -3.572  -1.900   0.000  1.00  0.00    -0.348 OA
BRANCH  23  24
ATOM     24  C   UNL     1      -4.768  -0.994   0.000  1.00  0.00     0.191 CG0
ATOM     25  G   UNL     1      -4.804   0.506   0.000  1.00  0.00     0.000 G0
ENDBRANCH  23  24
ENDBRANCH  22  23
BRANCH  22  26
ATOM     26  O   UNL     1      -1.302  -2.789   0.000  1.00  0.00    -0.368 OA
ATOM     27  H   UNL     1       0.000   0.000   0.000  1.00  0.00     0.213 HD
ENDBRANCH  22  26
ENDBRANCH  14  22
BRANCH  13  28
ATOM     28  C   UNL     1      -4.804   0.506   0.000  1.00  0.00     0.002 CG0
ATOM     29  G   UNL     1      -4.768  -0.994   0.000  1.00  0.00     0.000 G0
ENDBRANCH  13  28
TORSDOF 2
