REMARK SMILES C=CC[C@]12C[C@H](OC)[C@H](OC(C)=O)[C@](OC)(C1=O)[C@H](c1cc(OC)c3c(c1)OCO3)[C@H]2C
REMARK SMILES IDX 4 1 5 2 6 3 9 4 14 5 17 6 18 7 19 8 31 9 32 10 3 11 2 12
REMARK SMILES IDX 1 13 7 14 8 15 15 16 16 17 20 18 21 19 27 20 22 21 26 22
REMARK SMILES IDX 25 23 28 24 30 25 29 26 23 27 24 28 10 29 11 30 12 31 13 32
REMARK H PARENT
ROOT
ATOM      1  C   UNL     1       2.457   1.541   0.000  1.00  0.00     0.041 C 
ATOM      2  C   UNL     1       3.767   0.810   0.000  1.00  0.00     0.051 C 
ATOM      3  C   UNL     1       3.790  -0.690   0.000  1.00  0.00     0.163 C 
ATOM      4  C   UNL     1       2.502  -1.459   0.000  1.00  0.00     0.245 C 
ATOM      5  C   UNL     1       1.192  -0.728   0.000  1.00  0.00     0.173 C 
ATOM      6  C   UNL     1       1.169   0.772   0.000  1.00  0.00     0.176 C 
ATOM      7  O   UNL     1      -0.141   1.502   0.000  1.00  0.00    -0.296 OA
ATOM      8  C   UNL     1       0.255   0.521   0.000  1.00  0.00     0.067 C 
ATOM      9  C   UNL     1       0.986   1.831   0.000  1.00  0.00     0.011 C 
ATOM     10  C   UNL     1       0.355   3.192   0.000  1.00  0.00     0.009 C 
ENDROOT
BRANCH   1  11
ATOM     11  C   UNL     1       2.435   3.041   0.000  1.00  0.00     0.042 C 
BRANCH  11  12
ATOM     12  C   UNL     1       3.723   3.810   0.000  1.00  0.00    -0.034 C 
ATOM     13  C   UNL     1       3.700   5.310   0.000  1.00  0.00     0.004 C 
ENDBRANCH  11  12
ENDBRANCH   1  11
BRANCH   3  14
ATOM     14  O   UNL     1       5.100  -1.420   0.000  1.00  0.00    -0.377 OA
ATOM     15  C   UNL     1       5.122  -2.920   0.000  1.00  0.00     0.195 C 
ENDBRANCH   3  14
BRANCH   5  16
ATOM     16  O   UNL     1      -0.096  -1.498   0.000  1.00  0.00    -0.366 OA
ATOM     17  C   UNL     1      -1.046  -1.240   0.000  1.00  0.00     0.196 C 
ENDBRANCH   5  16
BRANCH   8  18
ATOM     18  C   UNL     1      -1.234   0.342   0.000  1.00  0.00    -0.033 A 
ATOM     19  C   UNL     1      -2.134   1.542   0.000  1.00  0.00     0.054 A 
ATOM     20  C   UNL     1      -1.824  -1.038   0.000  1.00  0.00     0.055 A 
ATOM     21  C   UNL     1      -3.623   1.363   0.000  1.00  0.00     0.165 A 
ATOM     22  C   UNL     1      -3.313  -1.217   0.000  1.00  0.00     0.169 A 
ATOM     23  C   UNL     1      -4.213  -0.016   0.000  1.00  0.00     0.207 A 
ATOM     24  O   UNL     1      -4.177  -2.443   0.000  1.00  0.00    -0.453 OA
ATOM     25  O   UNL     1      -5.632  -0.501   0.000  1.00  0.00    -0.450 OA
ATOM     26  C   UNL     1      -5.610  -2.001   0.000  1.00  0.00     0.468 C 
BRANCH  21  27
ATOM     27  O   UNL     1      -4.523   2.563   0.000  1.00  0.00    -0.493 OA
ATOM     28  C   UNL     1      -3.933   3.942   0.000  1.00  0.00     0.278 C 
ENDBRANCH  21  27
ENDBRANCH   8  18
BRANCH   4  29
ATOM     29  O   UNL     1       2.524  -2.959   0.000  1.00  0.00    -0.456 OA
BRANCH  29  30
ATOM     30  C   UNL     1       1.237  -3.728   0.000  1.00  0.00     0.303 C 
ATOM     31  C   UNL     1       1.259  -5.228   0.000  1.00  0.00     0.139 C 
ATOM     32  O   UNL     1      -0.073  -2.997   0.000  1.00  0.00    -0.253 OA
ENDBRANCH  29  30
ENDBRANCH   4  29
TORSDOF 8
