REMARK SMILES COc1ccc2[nH]c3c(c2c1)CCn1c-3nc2cc(OC)c(OC)cc2c1=O
REMARK SMILES IDX 3 1 4 2 5 3 6 4 7 5 8 6 9 7 12 8 13 9 14 10 15 11 16 12
REMARK SMILES IDX 17 13 18 14 19 15 22 16 25 17 26 18 27 19 28 20 10 21 11 22
REMARK SMILES IDX 2 24 1 25 20 26 21 27 23 28 24 29
REMARK H PARENT 7 23
ROOT
ATOM      1  C   UNL     1      -6.396   0.107   0.000  1.00  0.00     0.119 A 
ATOM      2  C   UNL     1      -6.206   1.595   0.000  1.00  0.00     0.048 A 
ATOM      3  C   UNL     1      -4.823   2.175   0.000  1.00  0.00     0.030 A 
ATOM      4  C   UNL     1      -3.629   1.266   0.000  1.00  0.00     0.046 A 
ATOM      5  N   UNL     1      -2.155   1.545   0.000  1.00  0.00    -0.352 N 
ATOM      6  C   UNL     1      -1.435   0.230   0.000  1.00  0.00     0.086 A 
ATOM      7  C   UNL     1      -2.463  -0.863   0.000  1.00  0.00    -0.009 A 
ATOM      8  C   UNL     1      -2.032  -2.299   0.000  1.00  0.00     0.060 C 
ATOM      9  C   UNL     1      -0.572  -2.644   0.000  1.00  0.00     0.132 C 
ATOM     10  N   UNL     1       0.457  -1.552   0.000  1.00  0.00    -0.291 N 
ATOM     11  C   UNL     1       0.025  -0.115   0.000  1.00  0.00     0.160 A 
ATOM     12  N   UNL     1       1.054   0.977   0.000  1.00  0.00    -0.228 NA
ATOM     13  C   UNL     1       2.514   0.632   0.000  1.00  0.00     0.082 A 
ATOM     14  C   UNL     1       3.542   1.724   0.000  1.00  0.00     0.079 A 
ATOM     15  C   UNL     1       5.002   1.379   0.000  1.00  0.00     0.162 A 
ATOM     16  C   UNL     1       5.433  -0.057   0.000  1.00  0.00     0.161 A 
ATOM     17  C   UNL     1       4.405  -1.149   0.000  1.00  0.00     0.066 A 
ATOM     18  C   UNL     1       2.945  -0.804   0.000  1.00  0.00     0.070 A 
ATOM     19  C   UNL     1       1.917  -1.896   0.000  1.00  0.00     0.261 A 
ATOM     20  O   UNL     1       2.348  -3.333   0.000  1.00  0.00    -0.269 OA
ATOM     21  C   UNL     1      -3.819  -0.222   0.000  1.00  0.00     0.007 A 
ATOM     22  C   UNL     1      -5.203  -0.801   0.000  1.00  0.00     0.057 A 
ATOM     23  H   UNL     1       0.000   0.000   0.000  1.00  0.00     0.167 HD
ENDROOT
BRANCH   1  24
ATOM     24  O   UNL     1      -7.780  -0.472   0.000  1.00  0.00    -0.497 OA
ATOM     25  C   UNL     1      -8.974   0.437   0.000  1.00  0.00     0.278 C 
ENDBRANCH   1  24
BRANCH  15  26
ATOM     26  O   UNL     1       6.030   2.471   0.000  1.00  0.00    -0.493 OA
ATOM     27  C   UNL     1       5.599   3.908   0.000  1.00  0.00     0.278 C 
ENDBRANCH  15  26
BRANCH  16  28
ATOM     28  O   UNL     1       6.893  -0.402   0.000  1.00  0.00    -0.493 OA
ATOM     29  C   UNL     1       7.325  -1.838   0.000  1.00  0.00     0.278 C 
ENDBRANCH  16  28
TORSDOF 3
