REMARK SMILES CC(=O)O[C@H]1CC(=O)OC[C@]12C1CC[C@@]3(C)[C@H](c4ccoc4)OC(=O)[C@H]4O[C@]43[C@]1(C)[C@H](O)C[C@H]2C(C)(C)O
REMARK SMILES IDX 5 1 6 2 7 3 8 4 9 5 10 6 11 7 12 8 13 9 14 10 15 11 16 12
REMARK SMILES IDX 17 13 23 14 24 15 25 16 26 17 27 18 28 19 29 20 30 21 31 22
REMARK SMILES IDX 33 23 34 24 4 25 2 26 1 27 3 28 35 29 36 30 37 31 38 32
REMARK SMILES IDX 32 34 18 36 22 37 19 38 21 39 20 40
REMARK H PARENT 38 33 32 35
ROOT
ATOM      1  C   UNL     1      -3.153   0.619   0.000  1.00  0.00     0.198 C 
ATOM      2  C   UNL     1      -3.750   1.996   0.000  1.00  0.00     0.168 C 
ATOM      3  C   UNL     1      -2.857   3.200   0.000  1.00  0.00     0.309 C 
ATOM      4  O   UNL     1      -3.454   4.577   0.000  1.00  0.00    -0.252 OA
ATOM      5  O   UNL     1      -1.367   3.029   0.000  1.00  0.00    -0.465 OA
ATOM      6  C   UNL     1      -0.770   1.653   0.000  1.00  0.00     0.244 C 
ATOM      7  C   UNL     1      -1.663   0.448   0.000  1.00  0.00     0.051 C 
ATOM      8  C   UNL     1      -0.173   0.277   0.000  1.00  0.00     0.014 C 
ATOM      9  C   UNL     1       0.720   1.482   0.000  1.00  0.00     0.006 C 
ATOM     10  C   UNL     1       2.211   1.310   0.000  1.00  0.00     0.014 C 
ATOM     11  C   UNL     1       2.807  -0.066   0.000  1.00  0.00     0.042 C 
ATOM     12  C   UNL     1       3.701   1.139   0.000  1.00  0.00     0.019 C 
ATOM     13  C   UNL     1       4.298  -0.237   0.000  1.00  0.00     0.219 C 
ATOM     14  O   UNL     1       4.894  -1.613   0.000  1.00  0.00    -0.455 OA
ATOM     15  C   UNL     1       4.001  -2.818   0.000  1.00  0.00     0.339 C 
ATOM     16  O   UNL     1       4.598  -4.194   0.000  1.00  0.00    -0.249 OA
ATOM     17  C   UNL     1       2.511  -2.647   0.000  1.00  0.00     0.262 C 
ATOM     18  O   UNL     1       1.020  -2.475   0.000  1.00  0.00    -0.352 OA
ATOM     19  C   UNL     1       1.914  -1.271   0.000  1.00  0.00     0.124 C 
ATOM     20  C   UNL     1       0.424  -1.099   0.000  1.00  0.00     0.030 C 
ATOM     21  C   UNL     1      -1.067  -0.928   0.000  1.00  0.00     0.018 C 
ATOM     22  C   UNL     1      -0.470  -2.304   0.000  1.00  0.00     0.124 C 
ATOM     23  C   UNL     1      -1.960  -2.133   0.000  1.00  0.00     0.040 C 
ATOM     24  C   UNL     1      -2.557  -0.757   0.000  1.00  0.00     0.036 C 
ENDROOT
BRANCH   1  25
ATOM     25  O   UNL     1      -4.047  -0.586   0.000  1.00  0.00    -0.461 OA
BRANCH  25  26
ATOM     26  C   UNL     1      -5.537  -0.414   0.000  1.00  0.00     0.302 C 
ATOM     27  C   UNL     1      -6.431  -1.619   0.000  1.00  0.00     0.139 C 
ATOM     28  O   UNL     1      -6.134   0.962   0.000  1.00  0.00    -0.253 OA
ENDBRANCH  25  26
ENDBRANCH   1  25
BRANCH  24  29
ATOM     29  C   UNL     1      -4.047  -0.586   0.000  1.00  0.00     0.063 C 
ATOM     30  C   UNL     1      -3.876   0.905   0.000  1.00  0.00     0.042 C 
ATOM     31  C   UNL     1      -4.218  -2.076   0.000  1.00  0.00     0.042 C 
BRANCH  29  32
ATOM     32  O   UNL     1      -5.451  -0.059   0.000  1.00  0.00    -0.390 OA
ATOM     33  H   UNL     1       0.000   0.000   0.000  1.00  0.00     0.211 HD
ENDBRANCH  29  32
ENDBRANCH  24  29
BRANCH  22  34
ATOM     34  O   UNL     1       0.127  -3.680   0.000  1.00  0.00    -0.392 OA
ATOM     35  H   UNL     1       0.000   0.000   0.000  1.00  0.00     0.210 HD
ENDBRANCH  22  34
BRANCH  13  36
ATOM     36  C   UNL     1       5.191   0.968   0.000  1.00  0.00     0.031 A 
ATOM     37  C   UNL     1       4.741   2.399   0.000  1.00  0.00     0.202 A 
ATOM     38  C   UNL     1       6.691   0.953   0.000  1.00  0.00     0.049 A 
ATOM     39  O   UNL     1       5.963   3.269   0.000  1.00  0.00    -0.472 OA
ATOM     40  C   UNL     1       7.168   2.376   0.000  1.00  0.00     0.195 A 
ENDBRANCH  13  36
TORSDOF 6
