REMARK SMILES CC1=C2[C@H](CC1)[C@H](C)CC[C@@H]1[C@H]2C1(C)C
REMARK SMILES IDX 1 1 2 2 3 3 4 4 5 5 6 6 12 7 11 8 13 9 14 10 15 11 10 12
REMARK SMILES IDX 7 14 8 15 9 16
REMARK H PARENT
REMARK Flexibility Score:    5.900
ROOT
ATOM      1  C   UNL     1       0.327  -3.315   0.000  1.00  0.00     0.039 C 
ATOM      2  C   UNL     1      -0.656  -2.181   0.000  1.00  0.00    -0.073 C 
ATOM      3  C   UNL     1      -0.316  -0.720   0.000  1.00  0.00    -0.064 C 
ATOM      4  C   UNL     1      -1.600   0.054   0.000  1.00  0.00     0.018 C 
ATOM      5  C   UNL     1      -2.734  -0.928   0.000  1.00  0.00     0.013 C 
ATOM      6  C   UNL     1      -2.150  -2.309   0.000  1.00  0.00     0.031 C 
ENDROOT
BRANCH   3   7
ATOM      7  C   UNL     1       1.091  -0.199   0.000  1.00  0.00     0.025 C 
ATOM      8  C   UNL     1       1.560   1.226   0.000  1.00  0.00     0.003 C 
ATOM      9  C   UNL     1       2.559   0.107   0.000  1.00  0.00    -0.025 C 
ATOM     10  C   UNL     1       3.115  -1.286   0.000  1.00  0.00     0.012 C 
ATOM     11  C   UNL     1       3.835   0.896   0.000  1.00  0.00     0.012 C 
BRANCH   8  12
ATOM     12  C   UNL     1       0.739   2.481   0.000  1.00  0.00     0.005 CG0
ATOM     13  G   UNL     1      -0.754   2.622   0.000  1.00  0.00     0.000 G0
ENDBRANCH   8  12
ENDBRANCH   3   7
BRANCH   4  14
ATOM     14  C   UNL     1      -1.795   1.542   0.000  1.00  0.00    -0.007 C 
ATOM     15  C   UNL     1      -3.220   2.011   0.000  1.00  0.00     0.008 C 
BRANCH  14  16
ATOM     16  C   UNL     1      -0.754   2.622   0.000  1.00  0.00     0.004 CG0
ATOM     17  G   UNL     1       0.739   2.481   0.000  1.00  0.00     0.000 G0
ENDBRANCH  14  16
ENDBRANCH   4  14
TORSDOF 0
