REMARK SMILES COc1cc2c(cc1OC)[C@@H](c1ccc3c(c1)OCO3)[C@H](C)[C@@H](C)C2=O
REMARK SMILES IDX 3 1 4 2 5 3 6 4 7 5 8 6 11 7 21 8 22 9 23 10 24 11 25 12
REMARK SMILES IDX 26 13 2 14 1 15 9 16 10 17 12 18 13 19 17 20 14 21 16 22
REMARK SMILES IDX 15 23 18 24 20 25 19 26
REMARK H PARENT
ROOT
ATOM      1  C   UNL     1      -3.620  -1.108   0.000  1.00  0.00     0.161 A 
ATOM      2  C   UNL     1      -3.529   0.389   0.000  1.00  0.00     0.062 A 
ATOM      3  C   UNL     1      -2.186   1.059   0.000  1.00  0.00     0.026 A 
ATOM      4  C   UNL     1      -0.936   0.231   0.000  1.00  0.00    -0.025 A 
ATOM      5  C   UNL     1      -1.027  -1.267   0.000  1.00  0.00     0.055 A 
ATOM      6  C   UNL     1      -2.370  -1.936   0.000  1.00  0.00     0.161 A 
ATOM      7  C   UNL     1       0.407   0.900   0.000  1.00  0.00     0.054 C 
ATOM      8  C   UNL     1       0.498   2.397   0.000  1.00  0.00     0.008 C 
ATOM      9  C   UNL     1       1.841   3.066   0.000  1.00  0.00     0.009 C 
ATOM     10  C   UNL     1      -0.752   3.225   0.000  1.00  0.00     0.062 C 
ATOM     11  C   UNL     1      -0.661   4.722   0.000  1.00  0.00     0.016 C 
ATOM     12  C   UNL     1      -2.095   2.556   0.000  1.00  0.00     0.166 C 
ATOM     13  O   UNL     1      -3.346   3.384   0.000  1.00  0.00    -0.294 OA
ENDROOT
BRANCH   1  14
ATOM     14  O   UNL     1      -4.963  -1.777   0.000  1.00  0.00    -0.493 OA
ATOM     15  C   UNL     1      -6.214  -0.949   0.000  1.00  0.00     0.278 C 
ENDBRANCH   1  14
BRANCH   6  16
ATOM     16  O   UNL     1      -2.461  -3.433   0.000  1.00  0.00    -0.493 OA
ATOM     17  C   UNL     1      -3.804  -4.102   0.000  1.00  0.00     0.278 C 
ENDBRANCH   6  16
BRANCH   7  18
ATOM     18  C   UNL     1       1.658   0.072   0.000  1.00  0.00    -0.036 A 
ATOM     19  C   UNL     1       1.566  -1.425   0.000  1.00  0.00     0.008 A 
ATOM     20  C   UNL     1       3.000   0.741   0.000  1.00  0.00     0.055 A 
ATOM     21  C   UNL     1       2.817  -2.253   0.000  1.00  0.00     0.051 A 
ATOM     22  C   UNL     1       4.251  -0.087   0.000  1.00  0.00     0.166 A 
ATOM     23  C   UNL     1       4.159  -1.584   0.000  1.00  0.00     0.165 A 
ATOM     24  O   UNL     1       5.703   0.289   0.000  1.00  0.00    -0.454 OA
ATOM     25  O   UNL     1       5.555  -2.134   0.000  1.00  0.00    -0.454 OA
ATOM     26  C   UNL     1       6.509  -0.976   0.000  1.00  0.00     0.468 C 
ENDBRANCH   7  18
TORSDOF 3
