REMARK SMILES CC(C)=CCN=C(NCC=C(C)C)NCC=C(C)C
REMARK SMILES IDX 7 1 8 2 14 3 6 6 5 7 4 8 2 9 1 10 3 11 9 12 10 13 11 14
REMARK SMILES IDX 12 15 13 16 15 17 16 18 17 19 18 20 19 21
REMARK H PARENT 8 4 14 5
ROOT
ATOM      1  C   UNL     1      -0.805   0.930   0.000  1.00  0.00     0.192 C 
ATOM      2  N   UNL     1       0.329   1.912   0.000  1.00  0.00    -0.353 N 
ATOM      3  N   UNL     1      -0.522  -0.543   0.000  1.00  0.00    -0.353 N 
ATOM      4  H   UNL     1       0.000   0.000   0.000  1.00  0.00     0.163 HD
ATOM      5  H   UNL     1       0.000   0.000   0.000  1.00  0.00     0.163 HD
ENDROOT
BRANCH   1   6
ATOM      6  N   UNL     1      -2.223   1.422   0.000  1.00  0.00    -0.249 NA
BRANCH   6   7
ATOM      7  C   UNL     1      -3.357   0.440   0.000  1.00  0.00     0.173 C 
BRANCH   7   8
ATOM      8  C   UNL     1      -4.774   0.931   0.000  1.00  0.00    -0.005 C 
BRANCH   8   9
ATOM      9  C   UNL     1      -5.908  -0.050   0.000  1.00  0.00    -0.079 C 
ATOM     10  C   UNL     1      -7.325   0.441   0.000  1.00  0.00     0.039 C 
ATOM     11  C   UNL     1      -5.625  -1.523   0.000  1.00  0.00     0.039 C 
ENDBRANCH   8   9
ENDBRANCH   7   8
ENDBRANCH   6   7
ENDBRANCH   1   6
BRANCH   2  12
ATOM     12  C   UNL     1       1.746   1.421   0.000  1.00  0.00     0.143 C 
BRANCH  12  13
ATOM     13  C   UNL     1       2.880   2.403   0.000  1.00  0.00    -0.007 C 
BRANCH  13  14
ATOM     14  C   UNL     1       4.297   1.911   0.000  1.00  0.00    -0.079 C 
ATOM     15  C   UNL     1       5.431   2.893   0.000  1.00  0.00     0.039 C 
ATOM     16  C   UNL     1       4.580   0.438   0.000  1.00  0.00     0.039 C 
ENDBRANCH  13  14
ENDBRANCH  12  13
ENDBRANCH   2  12
BRANCH   3  17
ATOM     17  C   UNL     1       0.895  -1.034   0.000  1.00  0.00     0.143 C 
BRANCH  17  18
ATOM     18  C   UNL     1       1.178  -2.507   0.000  1.00  0.00    -0.007 C 
BRANCH  18  19
ATOM     19  C   UNL     1       2.595  -2.998   0.000  1.00  0.00    -0.079 C 
ATOM     20  C   UNL     1       2.878  -4.471   0.000  1.00  0.00     0.039 C 
ATOM     21  C   UNL     1       3.729  -2.017   0.000  1.00  0.00     0.039 C 
ENDBRANCH  18  19
ENDBRANCH  17  18
ENDBRANCH   3  17
TORSDOF 10
