REMARK SMILES C[C@H]1C(=O)O[C@@H]2C[C@H]3[C@@H](O)CCC[C@@H]3[C@@]3(CCC(=O)OC3)[C@@H]21
REMARK SMILES IDX 1 1 2 2 3 3 4 4 5 5 6 6 7 7 8 8 9 9 11 10 12 11 13 12 14 13
REMARK SMILES IDX 15 14 16 15 17 16 18 17 19 18 20 19 21 20 22 21 10 22
REMARK H PARENT 10 23
ROOT
ATOM      1  C   UNL     1      -3.507   0.180   0.000  1.00  0.00     0.020 C 
ATOM      2  C   UNL     1      -2.489  -0.921   0.000  1.00  0.00     0.103 C 
ATOM      3  C   UNL     1      -2.780  -2.392   0.000  1.00  0.00     0.309 C 
ATOM      4  O   UNL     1      -4.142  -3.021   0.000  1.00  0.00    -0.252 OA
ATOM      5  O   UNL     1      -1.471  -3.124   0.000  1.00  0.00    -0.462 OA
ATOM      6  C   UNL     1      -0.370  -2.106   0.000  1.00  0.00     0.181 C 
ATOM      7  C   UNL     1       1.124  -2.242   0.000  1.00  0.00     0.052 C 
ATOM      8  C   UNL     1       1.989  -1.016   0.000  1.00  0.00     0.025 C 
ATOM      9  C   UNL     1       3.482  -1.153   0.000  1.00  0.00     0.118 C 
ATOM     10  C   UNL     1       4.347   0.073   0.000  1.00  0.00     0.032 C 
ATOM     11  C   UNL     1       3.719   1.435   0.000  1.00  0.00     0.003 C 
ATOM     12  C   UNL     1       2.225   1.571   0.000  1.00  0.00     0.005 C 
ATOM     13  C   UNL     1       1.360   0.345   0.000  1.00  0.00     0.005 C 
ATOM     14  C   UNL     1      -0.134   0.482   0.000  1.00  0.00     0.015 C 
ATOM     15  C   UNL     1       0.731   1.707   0.000  1.00  0.00     0.023 C 
ATOM     16  C   UNL     1       0.102   3.069   0.000  1.00  0.00     0.123 C 
ATOM     17  C   UNL     1      -1.392   3.205   0.000  1.00  0.00     0.305 C 
ATOM     18  O   UNL     1      -2.020   4.567   0.000  1.00  0.00    -0.252 OA
ATOM     19  O   UNL     1      -2.257   1.980   0.000  1.00  0.00    -0.465 OA
ATOM     20  C   UNL     1      -1.628   0.618   0.000  1.00  0.00     0.240 C 
ATOM     21  C   UNL     1      -0.999  -0.744   0.000  1.00  0.00     0.054 C 
ENDROOT
BRANCH   9  22
ATOM     22  O   UNL     1       4.111  -2.515   0.000  1.00  0.00    -0.393 OA
ATOM     23  H   UNL     1       0.000   0.000   0.000  1.00  0.00     0.210 HD
ENDBRANCH   9  22
TORSDOF 1
