REMARK SMILES C[C@@H](C1OC(C)(C)[C@@H](O)[C@H]1O)[C@@H]1CC[C@]2(C)C3=CC[C@H]4C(C)(C)C(=O)CC[C@]4(C)[C@H]3CC[C@@]12C
REMARK SMILES IDX 3 1 4 2 5 3 6 4 7 5 8 6 10 7 2 8 1 9 12 10 13 11 33 12 14 13
REMARK SMILES IDX 32 14 15 15 31 16 17 17 30 18 18 19 28 20 19 21 27 22 20 23
REMARK SMILES IDX 26 24 21 25 24 26 34 27 16 28 29 29 22 30 23 31 25 32 11 33
REMARK SMILES IDX 9 35
REMARK H PARENT 11 34 9 36
ROOT
ATOM      1  C   UNL     1       4.081  -0.175   0.000  1.00  0.00     0.153 C 
ATOM      2  O   UNL     1       3.076   0.939   0.000  1.00  0.00    -0.366 OA
ATOM      3  C   UNL     1       3.825   2.238   0.000  1.00  0.00     0.092 C 
ATOM      4  C   UNL     1       2.454   2.847   0.000  1.00  0.00     0.045 C 
ATOM      5  C   UNL     1       4.286   3.666   0.000  1.00  0.00     0.045 C 
ATOM      6  C   UNL     1       5.292   1.928   0.000  1.00  0.00     0.177 C 
ATOM      7  C   UNL     1       5.451   0.437   0.000  1.00  0.00     0.175 C 
ENDROOT
BRANCH   1   8
ATOM      8  C   UNL     1       3.771  -1.643   0.000  1.00  0.00     0.021 C 
ATOM      9  C   UNL     1       4.887  -2.645   0.000  1.00  0.00     0.011 C 
BRANCH   8  10
ATOM     10  C   UNL     1       2.345  -2.108   0.000  1.00  0.00     0.001 C 
ATOM     11  C   UNL     1       1.883  -3.535   0.000  1.00  0.00     0.005 C 
ATOM     12  C   UNL     1       1.131  -1.228   0.000  1.00  0.00    -0.020 C 
ATOM     13  C   UNL     1       0.383  -3.537   0.000  1.00  0.00     0.012 C 
ATOM     14  C   UNL     1       0.972   0.264   0.000  1.00  0.00     0.008 C 
ATOM     15  C   UNL     1      -0.082  -2.111   0.000  1.00  0.00    -0.006 C 
ATOM     16  C   UNL     1      -0.399   0.873   0.000  1.00  0.00     0.009 C 
ATOM     17  C   UNL     1      -1.453  -1.502   0.000  1.00  0.00    -0.064 C 
ATOM     18  C   UNL     1      -1.612  -0.011   0.000  1.00  0.00     0.021 C 
ATOM     19  C   UNL     1      -2.666  -2.385   0.000  1.00  0.00    -0.027 C 
ATOM     20  C   UNL     1      -2.983   0.598   0.000  1.00  0.00    -0.022 C 
ATOM     21  C   UNL     1      -4.037  -1.777   0.000  1.00  0.00     0.032 C 
ATOM     22  C   UNL     1      -3.141   2.089   0.000  1.00  0.00     0.015 C 
ATOM     23  C   UNL     1      -4.195  -0.285   0.000  1.00  0.00     0.012 C 
ATOM     24  C   UNL     1      -4.512   2.698   0.000  1.00  0.00     0.077 C 
ATOM     25  C   UNL     1      -5.566   0.323   0.000  1.00  0.00     0.027 C 
ATOM     26  C   UNL     1      -5.725   1.815   0.000  1.00  0.00     0.138 C 
ATOM     27  C   UNL     1       2.429  -0.476   0.000  1.00  0.00     0.012 C 
ATOM     28  C   UNL     1      -1.196  -3.116   0.000  1.00  0.00     0.017 C 
ATOM     29  C   UNL     1      -1.770   1.481   0.000  1.00  0.00     0.012 C 
ATOM     30  C   UNL     1      -7.063   0.426   0.000  1.00  0.00     0.020 C 
ATOM     31  C   UNL     1      -5.927  -1.133   0.000  1.00  0.00     0.020 C 
ATOM     32  O   UNL     1      -7.096   2.423   0.000  1.00  0.00    -0.299 OA
ENDBRANCH   8  10
ENDBRANCH   1   8
BRANCH   7  33
ATOM     33  O   UNL     1       6.751  -0.312   0.000  1.00  0.00    -0.388 OA
ATOM     34  H   UNL     1       0.000   0.000   0.000  1.00  0.00     0.211 HD
ENDBRANCH   7  33
BRANCH   6  35
ATOM     35  O   UNL     1       6.406   2.933   0.000  1.00  0.00    -0.387 OA
ATOM     36  H   UNL     1       0.000   0.000   0.000  1.00  0.00     0.211 HD
ENDBRANCH   6  35
TORSDOF 4
