REMARK SMILES COc1cc2c(cc1O)O[C@H](c1cc(OC)c(OC)c(OC)c1)[C@H]2C
REMARK SMILES IDX 3 1 4 2 5 3 6 4 7 5 8 6 10 7 11 8 24 9 25 10 2 11 1 12 9 13
REMARK SMILES IDX 12 15 13 16 23 17 14 18 20 19 17 20 15 21 16 22 21 23 22 24
REMARK SMILES IDX 18 25 19 26
REMARK H PARENT 9 14
ROOT
ATOM      1  C   UNL     1       5.113  -0.283   0.000  1.00  0.00     0.161 A 
ATOM      2  C   UNL     1       3.842  -1.081   0.000  1.00  0.00     0.058 A 
ATOM      3  C   UNL     1       2.516  -0.380   0.000  1.00  0.00     0.005 A 
ATOM      4  C   UNL     1       2.461   1.119   0.000  1.00  0.00     0.127 A 
ATOM      5  C   UNL     1       3.731   1.917   0.000  1.00  0.00     0.097 A 
ATOM      6  C   UNL     1       5.057   1.215   0.000  1.00  0.00     0.161 A 
ATOM      7  O   UNL     1       1.018   1.530   0.000  1.00  0.00    -0.485 OA
ATOM      8  C   UNL     1       0.182   0.284   0.000  1.00  0.00     0.211 C 
ATOM      9  C   UNL     1       1.108  -0.896   0.000  1.00  0.00     0.066 C 
ATOM     10  C   UNL     1       0.698  -2.338   0.000  1.00  0.00     0.017 C 
ENDROOT
BRANCH   1  11
ATOM     11  O   UNL     1       6.439  -0.985   0.000  1.00  0.00    -0.493 OA
ATOM     12  C   UNL     1       6.494  -2.484   0.000  1.00  0.00     0.278 C 
ENDBRANCH   1  11
BRANCH   6  13
ATOM     13  O   UNL     1       6.328   2.013   0.000  1.00  0.00    -0.504 OA
ATOM     14  H   UNL     1       0.000   0.000   0.000  1.00  0.00     0.293 HD
ENDBRANCH   6  13
BRANCH   8  15
ATOM     15  C   UNL     1      -1.317   0.229   0.000  1.00  0.00     0.001 A 
ATOM     16  C   UNL     1      -2.115   1.499   0.000  1.00  0.00     0.058 A 
ATOM     17  C   UNL     1      -2.018  -1.097   0.000  1.00  0.00     0.058 A 
ATOM     18  C   UNL     1      -3.614   1.444   0.000  1.00  0.00     0.165 A 
ATOM     19  C   UNL     1      -3.517  -1.152   0.000  1.00  0.00     0.165 A 
ATOM     20  C   UNL     1      -4.315   0.118   0.000  1.00  0.00     0.203 A 
BRANCH  18  21
ATOM     21  O   UNL     1      -4.411   2.714   0.000  1.00  0.00    -0.493 OA
ATOM     22  C   UNL     1      -3.710   4.040   0.000  1.00  0.00     0.278 C 
ENDBRANCH  18  21
BRANCH  19  23
ATOM     23  O   UNL     1      -4.219  -2.478   0.000  1.00  0.00    -0.493 OA
ATOM     24  C   UNL     1      -3.421  -3.749   0.000  1.00  0.00     0.278 C 
ENDBRANCH  19  23
BRANCH  20  25
ATOM     25  O   UNL     1      -5.814   0.063   0.000  1.00  0.00    -0.490 OA
ATOM     26  C   UNL     1      -6.515  -1.263   0.000  1.00  0.00     0.278 C 
ENDBRANCH  20  25
ENDBRANCH   8  15
TORSDOF 6
