REMARK SMILES Cc1cc2c(cc1O)[C@@H](C)[C@@H](O)C[C@H]2[C@H](C)CO
REMARK SMILES IDX 15 1 16 2 14 3 2 4 3 5 7 6 4 7 6 8 5 9 9 10 13 11 11 12 1 13
REMARK SMILES IDX 10 14 8 15 12 17 17 19 18 20
REMARK H PARENT 8 16 12 18 18 21
ROOT
ATOM      1  C   UNL     1      -2.250  -1.443   0.000  1.00  0.00     0.019 C 
ATOM      2  C   UNL     1      -3.750  -1.443   0.000  1.00  0.00     0.011 C 
ENDROOT
BRANCH   1   3
ATOM      3  C   UNL     1      -1.500  -0.144   0.000  1.00  0.00     0.027 C 
ATOM      4  C   UNL     1       2.250  -1.443   0.000  1.00  0.00    -0.009 A 
ATOM      5  C   UNL     1       0.750  -1.443   0.000  1.00  0.00     0.011 A 
ATOM      6  C   UNL     1       3.000  -0.144   0.000  1.00  0.00     0.118 A 
ATOM      7  C   UNL     1       0.000  -0.144   0.000  1.00  0.00    -0.040 A 
ATOM      8  C   UNL     1       2.250   1.155   0.000  1.00  0.00     0.050 A 
ATOM      9  C   UNL     1       0.750   1.155   0.000  1.00  0.00    -0.035 A 
ATOM     10  C   UNL     1      -0.000   2.454   0.000  1.00  0.00     0.045 C 
ATOM     11  C   UNL     1      -2.250   1.155   0.000  1.00  0.00     0.041 C 
ATOM     12  C   UNL     1      -1.500   2.454   0.000  1.00  0.00     0.122 C 
ATOM     13  C   UNL     1       3.000  -2.742   0.000  1.00  0.00     0.048 C 
ATOM     14  C   UNL     1       0.750   3.753   0.000  1.00  0.00     0.015 C 
BRANCH   6  15
ATOM     15  O   UNL     1       4.500  -0.144   0.000  1.00  0.00    -0.508 OA
ATOM     16  H   UNL     1       0.000   0.000   0.000  1.00  0.00     0.293 HD
ENDBRANCH   6  15
BRANCH  12  17
ATOM     17  O   UNL     1      -2.250   3.753   0.000  1.00  0.00    -0.392 OA
ATOM     18  H   UNL     1       0.000   0.000   0.000  1.00  0.00     0.210 HD
ENDBRANCH  12  17
ENDBRANCH   1   3
BRANCH   1  19
ATOM     19  C   UNL     1      -1.500  -2.742   0.000  1.00  0.00     0.160 C 
BRANCH  19  20
ATOM     20  O   UNL     1      -2.250  -4.042   0.000  1.00  0.00    -0.396 OA
ATOM     21  H   UNL     1       0.000   0.000   0.000  1.00  0.00     0.210 HD
ENDBRANCH  19  20
ENDBRANCH   1  19
TORSDOF 5
