REMARK SMILES O=C1N[C@@H](Cc2ccccc2)C(=O)N2CCC[C@@H]12
REMARK SMILES IDX 1 1 2 2 3 3 4 4 12 5 13 6 14 7 15 8 16 9 17 10 18 11 5 13
REMARK SMILES IDX 6 14 7 15 11 16 8 17 10 18 9 19
REMARK H PARENT 3 12
ROOT
ATOM      1  O   UNL     1      -3.918   2.432   0.000  1.00  0.00    -0.273 OA
ATOM      2  C   UNL     1      -2.738   1.506   0.000  1.00  0.00     0.243 C 
ATOM      3  N   UNL     1      -1.346   2.064   0.000  1.00  0.00    -0.342 N 
ATOM      4  C   UNL     1      -0.166   1.137   0.000  1.00  0.00     0.176 C 
ATOM      5  C   UNL     1      -0.379  -0.347   0.000  1.00  0.00     0.246 C 
ATOM      6  O   UNL     1       0.801  -1.274   0.000  1.00  0.00    -0.272 OA
ATOM      7  N   UNL     1      -1.771  -0.906   0.000  1.00  0.00    -0.329 N 
ATOM      8  C   UNL     1      -2.288  -2.314   0.000  1.00  0.00     0.120 C 
ATOM      9  C   UNL     1      -3.787  -2.258   0.000  1.00  0.00     0.024 C 
ATOM     10  C   UNL     1      -4.196  -0.815   0.000  1.00  0.00     0.037 C 
ATOM     11  C   UNL     1      -2.951   0.021   0.000  1.00  0.00     0.174 C 
ATOM     12  H   UNL     1       0.000   0.000   0.000  1.00  0.00     0.164 HD
ENDROOT
BRANCH   4  13
ATOM     13  C   UNL     1       1.226   1.696   0.000  1.00  0.00     0.070 C 
BRANCH  13  14
ATOM     14  C   UNL     1       2.406   0.769   0.000  1.00  0.00    -0.045 A 
ATOM     15  C   UNL     1       2.193  -0.715   0.000  1.00  0.00     0.004 A 
ATOM     16  C   UNL     1       3.798   1.328   0.000  1.00  0.00     0.004 A 
ATOM     17  C   UNL     1       3.373  -1.642   0.000  1.00  0.00     0.000 A 
ATOM     18  C   UNL     1       4.978   0.401   0.000  1.00  0.00     0.000 A 
ATOM     19  C   UNL     1       4.765  -1.083   0.000  1.00  0.00     0.000 A 
ENDBRANCH  13  14
ENDBRANCH   4  13
TORSDOF 2
