REMARK SMILES O=C(O[C@@H]1[C@@H](O)[C@H](O)[C@@H](CO)O[C@H]1c1c(O)cc2oc3cc(O)c(O)cc3c(=O)c2c1O)c1ccc(O)cc1
REMARK SMILES IDX 3 1 2 2 1 3 33 4 34 5 39 6 35 7 38 8 36 9 37 10 4 12 5 13
REMARK SMILES IDX 13 14 7 15 12 16 9 17 6 18 14 20 15 21 31 22 17 23 30 24
REMARK SMILES IDX 18 25 28 26 19 27 27 28 20 29 26 30 21 31 24 32 22 33 29 34
REMARK SMILES IDX 16 35 32 37 25 39 23 41 8 43 10 45 11 46
REMARK H PARENT 37 11 6 19 16 36 32 38 25 40 23 42 8 44 11 47
ROOT
ATOM      1  O   UNL     1      -1.848   1.080   0.000  1.00  0.00    -0.453 OA
ENDROOT
BRANCH   1   2
ATOM      2  C   UNL     1      -2.143   2.551   0.000  1.00  0.00     0.338 C 
ATOM      3  O   UNL     1      -3.564   3.031   0.000  1.00  0.00    -0.246 OA
BRANCH   2   4
ATOM      4  C   UNL     1      -1.017   3.542   0.000  1.00  0.00     0.060 A 
ATOM      5  C   UNL     1       0.404   3.063   0.000  1.00  0.00     0.019 A 
ATOM      6  C   UNL     1      -1.312   5.013   0.000  1.00  0.00     0.019 A 
ATOM      7  C   UNL     1       1.530   4.054   0.000  1.00  0.00     0.047 A 
ATOM      8  C   UNL     1      -0.186   6.004   0.000  1.00  0.00     0.047 A 
ATOM      9  C   UNL     1       1.235   5.524   0.000  1.00  0.00     0.115 A 
BRANCH   9  10
ATOM     10  O   UNL     1       2.361   6.515   0.000  1.00  0.00    -0.508 OA
ATOM     11  H   UNL     1       0.000   0.000   0.000  1.00  0.00     0.293 HD
ENDBRANCH   9  10
ENDBRANCH   2   4
ENDBRANCH   1   2
BRANCH   1  12
ATOM     12  C   UNL     1      -2.974   0.089   0.000  1.00  0.00     0.242 C 
ATOM     13  C   UNL     1      -4.395   0.569   0.000  1.00  0.00     0.189 C 
ATOM     14  C   UNL     1      -2.678  -1.381   0.000  1.00  0.00     0.200 C 
ATOM     15  C   UNL     1      -5.521  -0.422   0.000  1.00  0.00     0.178 C 
ATOM     16  O   UNL     1      -3.804  -2.372   0.000  1.00  0.00    -0.361 OA
ATOM     17  C   UNL     1      -5.226  -1.893   0.000  1.00  0.00     0.176 C 
BRANCH  13  18
ATOM     18  O   UNL     1      -4.690   2.040   0.000  1.00  0.00    -0.386 OA
ATOM     19  H   UNL     1       0.000   0.000   0.000  1.00  0.00     0.211 HD
ENDBRANCH  13  18
BRANCH  14  20
ATOM     20  C   UNL     1      -1.257  -1.861   0.000  1.00  0.00     0.069 A 
ATOM     21  C   UNL     1      -0.962  -3.332   0.000  1.00  0.00     0.129 A 
ATOM     22  C   UNL     1      -0.131  -0.870   0.000  1.00  0.00     0.140 A 
ATOM     23  C   UNL     1       0.460  -3.811   0.000  1.00  0.00     0.094 A 
ATOM     24  C   UNL     1       1.290  -1.349   0.000  1.00  0.00     0.108 A 
ATOM     25  C   UNL     1       1.585  -2.820   0.000  1.00  0.00     0.146 A 
ATOM     26  C   UNL     1       2.416  -0.358   0.000  1.00  0.00     0.204 A 
ATOM     27  O   UNL     1       3.007  -3.300   0.000  1.00  0.00    -0.455 OA
ATOM     28  C   UNL     1       3.837  -0.838   0.000  1.00  0.00     0.069 A 
ATOM     29  C   UNL     1       4.133  -2.308   0.000  1.00  0.00     0.142 A 
ATOM     30  C   UNL     1       4.963   0.153   0.000  1.00  0.00     0.066 A 
ATOM     31  C   UNL     1       5.554  -2.788   0.000  1.00  0.00     0.098 A 
ATOM     32  C   UNL     1       6.385  -0.326   0.000  1.00  0.00     0.158 A 
ATOM     33  C   UNL     1       6.680  -1.797   0.000  1.00  0.00     0.161 A 
ATOM     34  O   UNL     1       2.121   1.112   0.000  1.00  0.00    -0.288 OA
BRANCH  21  35
ATOM     35  O   UNL     1      -2.088  -4.323   0.000  1.00  0.00    -0.507 OA
ATOM     36  H   UNL     1       0.000   0.000   0.000  1.00  0.00     0.293 HD
ENDBRANCH  21  35
BRANCH  22  37
ATOM     37  O   UNL     1      -0.426   0.601   0.000  1.00  0.00    -0.506 OA
ATOM     38  H   UNL     1       0.000   0.000   0.000  1.00  0.00     0.293 HD
ENDBRANCH  22  37
BRANCH  32  39
ATOM     39  O   UNL     1       7.511   0.665   0.000  1.00  0.00    -0.504 OA
ATOM     40  H   UNL     1       0.000   0.000   0.000  1.00  0.00     0.293 HD
ENDBRANCH  32  39
BRANCH  33  41
ATOM     41  O   UNL     1       8.101  -2.276   0.000  1.00  0.00    -0.504 OA
ATOM     42  H   UNL     1       0.000   0.000   0.000  1.00  0.00     0.293 HD
ENDBRANCH  33  41
ENDBRANCH  14  20
BRANCH  15  43
ATOM     43  O   UNL     1      -6.942   0.057   0.000  1.00  0.00    -0.387 OA
ATOM     44  H   UNL     1       0.000   0.000   0.000  1.00  0.00     0.211 HD
ENDBRANCH  15  43
BRANCH  17  45
ATOM     45  C   UNL     1      -6.351  -2.884   0.000  1.00  0.00     0.191 C 
BRANCH  45  46
ATOM     46  O   UNL     1      -6.056  -4.354   0.000  1.00  0.00    -0.394 OA
ATOM     47  H   UNL     1       0.000   0.000   0.000  1.00  0.00     0.210 HD
ENDBRANCH  45  46
ENDBRANCH  17  45
ENDBRANCH   1  12
TORSDOF 13
