REMARK SMILES CC(=O)O[C@H]1CC[C@]2(C)[C@H]3CC[C@]4(C)C(=CC[C@@]5(C(=O)O)CCC(C)(C)C[C@H]54)[C@]3(C)CC[C@H]2C1(C)C
REMARK SMILES IDX 5 1 6 2 7 3 8 4 9 5 10 6 11 7 12 8 13 9 14 10 15 11 16 12
REMARK SMILES IDX 17 13 18 14 22 15 23 16 24 17 25 18 26 19 27 20 28 21 29 22
REMARK SMILES IDX 30 23 31 24 32 25 33 26 34 27 35 28 36 29 4 30 2 31 1 32
REMARK SMILES IDX 3 33 19 34 20 35 21 36
REMARK H PARENT 21 37
ROOT
ATOM      1  C   UNL     1      -5.493   0.062   0.000  1.00  0.00     0.182 C 
ATOM      2  C   UNL     1      -4.824   1.404   0.000  1.00  0.00     0.046 C 
ATOM      3  C   UNL     1      -3.327   1.496   0.000  1.00  0.00     0.011 C 
ATOM      4  C   UNL     1      -2.499   0.245   0.000  1.00  0.00    -0.025 C 
ATOM      5  C   UNL     1      -1.829   1.587   0.000  1.00  0.00     0.012 C 
ATOM      6  C   UNL     1      -1.002   0.337   0.000  1.00  0.00     0.005 C 
ATOM      7  C   UNL     1      -0.332   1.679   0.000  1.00  0.00     0.006 C 
ATOM      8  C   UNL     1       1.165   1.770   0.000  1.00  0.00     0.012 C 
ATOM      9  C   UNL     1       1.993   0.519   0.000  1.00  0.00    -0.007 C 
ATOM     10  C   UNL     1       2.662   1.862   0.000  1.00  0.00     0.016 C 
ATOM     11  C   UNL     1       1.323  -0.823   0.000  1.00  0.00    -0.062 C 
ATOM     12  C   UNL     1       2.151  -2.074   0.000  1.00  0.00    -0.025 C 
ATOM     13  C   UNL     1       3.648  -1.982   0.000  1.00  0.00     0.046 C 
ATOM     14  C   UNL     1       4.318  -0.640   0.000  1.00  0.00     0.075 C 
ATOM     15  C   UNL     1       5.815  -0.548   0.000  1.00  0.00     0.020 C 
ATOM     16  C   UNL     1       6.484   0.794   0.000  1.00  0.00     0.007 C 
ATOM     17  C   UNL     1       5.657   2.045   0.000  1.00  0.00    -0.035 C 
ATOM     18  C   UNL     1       5.306   3.503   0.000  1.00  0.00     0.011 C 
ATOM     19  C   UNL     1       7.032   2.643   0.000  1.00  0.00     0.011 C 
ATOM     20  C   UNL     1       4.159   1.953   0.000  1.00  0.00     0.012 C 
ATOM     21  C   UNL     1       3.490   0.611   0.000  1.00  0.00     0.017 C 
ATOM     22  C   UNL     1      -0.174  -0.914   0.000  1.00  0.00    -0.008 C 
ATOM     23  C   UNL     1       0.654  -2.165   0.000  1.00  0.00     0.016 C 
ATOM     24  C   UNL     1      -0.843  -2.257   0.000  1.00  0.00     0.012 C 
ATOM     25  C   UNL     1      -2.340  -2.348   0.000  1.00  0.00     0.006 C 
ATOM     26  C   UNL     1      -3.168  -1.097   0.000  1.00  0.00     0.005 C 
ATOM     27  C   UNL     1      -4.665  -1.189   0.000  1.00  0.00     0.005 C 
ATOM     28  C   UNL     1      -4.315  -2.647   0.000  1.00  0.00     0.015 C 
ATOM     29  C   UNL     1      -6.041  -1.787   0.000  1.00  0.00     0.015 C 
ENDROOT
BRANCH   1  30
ATOM     30  O   UNL     1      -6.990  -0.029   0.000  1.00  0.00    -0.462 OA
BRANCH  30  31
ATOM     31  C   UNL     1      -7.818   1.221   0.000  1.00  0.00     0.302 C 
ATOM     32  C   UNL     1      -9.315   1.130   0.000  1.00  0.00     0.139 C 
ATOM     33  O   UNL     1      -7.149   2.564   0.000  1.00  0.00    -0.253 OA
ENDBRANCH  30  31
ENDBRANCH   1  30
BRANCH  14  34
ATOM     34  C   UNL     1       5.146  -1.891   0.000  1.00  0.00     0.310 C 
ATOM     35  O   UNL     1       6.643  -1.799   0.000  1.00  0.00    -0.252 OA
BRANCH  34  36
ATOM     36  O   UNL     1       4.476  -3.233   0.000  1.00  0.00    -0.481 OA
ATOM     37  H   UNL     1       0.000   0.000   0.000  1.00  0.00     0.296 HD
ENDBRANCH  34  36
ENDBRANCH  14  34
TORSDOF 4
