REMARK SMILES O=c1cc(-c2ccccc2)oc2ccccc12
REMARK SMILES IDX 1 1 2 2 3 3 4 4 11 5 12 6 13 7 14 8 15 9 16 10 17 11 5 12
REMARK SMILES IDX 6 13 10 14 7 15 9 16 8 17
REMARK H PARENT
ROOT
ATOM      1  O   UNL     1       1.968   3.096   0.000  1.00  0.00    -0.289 OA
ATOM      2  C   UNL     1       1.386   1.714   0.000  1.00  0.00     0.193 A 
ATOM      3  C   UNL     1      -0.103   1.527   0.000  1.00  0.00     0.100 A 
ATOM      4  C   UNL     1      -0.685   0.145   0.000  1.00  0.00     0.138 A 
ATOM      5  O   UNL     1       0.221  -1.050   0.000  1.00  0.00    -0.456 OA
ATOM      6  C   UNL     1       1.709  -0.864   0.000  1.00  0.00     0.138 A 
ATOM      7  C   UNL     1       2.615  -2.059   0.000  1.00  0.00     0.048 A 
ATOM      8  C   UNL     1       4.103  -1.873   0.000  1.00  0.00     0.004 A 
ATOM      9  C   UNL     1       4.686  -0.491   0.000  1.00  0.00     0.001 A 
ATOM     10  C   UNL     1       3.780   0.705   0.000  1.00  0.00     0.016 A 
ATOM     11  C   UNL     1       2.292   0.518   0.000  1.00  0.00     0.065 A 
ENDROOT
BRANCH   4  12
ATOM     12  C   UNL     1      -2.174  -0.042   0.000  1.00  0.00     0.017 A 
ATOM     13  C   UNL     1      -3.079   1.154   0.000  1.00  0.00     0.012 A 
ATOM     14  C   UNL     1      -2.756  -1.424   0.000  1.00  0.00     0.012 A 
ATOM     15  C   UNL     1      -4.568   0.968   0.000  1.00  0.00     0.001 A 
ATOM     16  C   UNL     1      -4.244  -1.610   0.000  1.00  0.00     0.001 A 
ATOM     17  C   UNL     1      -5.150  -0.415   0.000  1.00  0.00     0.000 A 
ENDBRANCH   4  12
TORSDOF 1
