REMARK SMILES O=c1c2cc(O)ccc2oc2cccc(O)c12
REMARK SMILES IDX 1 1 2 2 3 3 4 4 5 5 7 6 8 7 9 8 10 9 11 10 12 11 13 12 14 13
REMARK SMILES IDX 15 14 17 15 16 16 6 18
REMARK H PARENT 16 17 6 19
ROOT
ATOM      1  O   UNL     1      -0.184  -2.557   0.000  1.00  0.00    -0.288 OA
ATOM      2  C   UNL     1      -0.166  -1.057   0.000  1.00  0.00     0.204 A 
ATOM      3  C   UNL     1       1.142  -0.323   0.000  1.00  0.00     0.069 A 
ATOM      4  C   UNL     1       2.432  -1.089   0.000  1.00  0.00     0.062 A 
ATOM      5  C   UNL     1       3.740  -0.355   0.000  1.00  0.00     0.116 A 
ATOM      6  C   UNL     1       3.759   1.145   0.000  1.00  0.00     0.050 A 
ATOM      7  C   UNL     1       2.469   1.911   0.000  1.00  0.00     0.052 A 
ATOM      8  C   UNL     1       1.161   1.177   0.000  1.00  0.00     0.138 A 
ATOM      9  O   UNL     1      -0.129   1.943   0.000  1.00  0.00    -0.456 OA
ATOM     10  C   UNL     1      -1.437   1.209   0.000  1.00  0.00     0.142 A 
ATOM     11  C   UNL     1      -2.727   1.975   0.000  1.00  0.00     0.048 A 
ATOM     12  C   UNL     1      -4.035   1.241   0.000  1.00  0.00     0.008 A 
ATOM     13  C   UNL     1      -4.053  -0.259   0.000  1.00  0.00     0.047 A 
ATOM     14  C   UNL     1      -2.764  -1.025   0.000  1.00  0.00     0.130 A 
ATOM     15  C   UNL     1      -1.456  -0.291   0.000  1.00  0.00     0.107 A 
ENDROOT
BRANCH  14  16
ATOM     16  O   UNL     1      -2.782  -2.525   0.000  1.00  0.00    -0.507 OA
ATOM     17  H   UNL     1       0.000   0.000   0.000  1.00  0.00     0.293 HD
ENDBRANCH  14  16
BRANCH   5  18
ATOM     18  O   UNL     1       5.030  -1.121   0.000  1.00  0.00    -0.508 OA
ATOM     19  H   UNL     1       0.000   0.000   0.000  1.00  0.00     0.293 HD
ENDBRANCH   5  18
TORSDOF 2
