REMARK SMILES COC(=O)C[C@H]1C(C)(C)C(=O)C=C2O[C@]3(C)[C@@]45[C@@H](O)C(=O)O[C@@H](c6ccoc6)[C@]4(C)C[C@H](O)[C@@]35[C@@]21C
REMARK SMILES IDX 5 1 3 2 4 3 2 4 1 5 6 6 7 7 35 8 10 9 34 10 13 11 12 12
REMARK SMILES IDX 32 13 15 14 17 15 14 16 31 17 18 18 29 19 20 20 23 21 22 22
REMARK SMILES IDX 8 23 9 24 36 25 11 26 16 27 30 28 21 29 33 30 19 32 24 34
REMARK SMILES IDX 28 35 25 36 27 37 26 38
REMARK H PARENT 33 31 19 33
ROOT
ATOM      1  C   UNL     1      -2.173   1.510   0.000  1.00  0.00     0.128 C 
ENDROOT
BRANCH   1   2
ATOM      2  C   UNL     1      -3.209   2.596   0.000  1.00  0.00     0.305 C 
ATOM      3  O   UNL     1      -4.666   2.241   0.000  1.00  0.00    -0.252 OA
BRANCH   2   4
ATOM      4  O   UNL     1      -2.787   4.035   0.000  1.00  0.00    -0.469 OA
ATOM      5  C   UNL     1      -3.822   5.120   0.000  1.00  0.00     0.282 C 
ENDBRANCH   2   4
ENDBRANCH   1   2
BRANCH   1   6
ATOM      6  C   UNL     1      -2.595   0.071   0.000  1.00  0.00     0.028 C 
ATOM      7  C   UNL     1      -4.053  -0.283   0.000  1.00  0.00     0.032 C 
ATOM      8  C   UNL     1      -1.560  -1.014   0.000  1.00  0.00     0.042 C 
ATOM      9  C   UNL     1      -4.475  -1.723   0.000  1.00  0.00     0.164 C 
ATOM     10  C   UNL     1      -0.060  -0.971   0.000  1.00  0.00     0.062 C 
ATOM     11  C   UNL     1      -1.982  -2.454   0.000  1.00  0.00     0.107 C 
ATOM     12  C   UNL     1      -3.439  -2.808   0.000  1.00  0.00     0.090 C 
ATOM     13  C   UNL     1      -0.260   0.516   0.000  1.00  0.00     0.127 C 
ATOM     14  C   UNL     1       0.444  -2.384   0.000  1.00  0.00     0.126 C 
ATOM     15  C   UNL     1       1.415  -1.240   0.000  1.00  0.00     0.070 C 
ATOM     16  O   UNL     1      -0.743  -3.300   0.000  1.00  0.00    -0.490 OA
ATOM     17  C   UNL     1       1.092   1.165   0.000  1.00  0.00     0.044 C 
ATOM     18  C   UNL     1       2.203  -2.517   0.000  1.00  0.00     0.235 C 
ATOM     19  C   UNL     1       2.127   0.080   0.000  1.00  0.00     0.025 C 
ATOM     20  C   UNL     1       3.702  -2.474   0.000  1.00  0.00     0.336 C 
ATOM     21  C   UNL     1       3.627   0.123   0.000  1.00  0.00     0.217 C 
ATOM     22  O   UNL     1       4.414  -1.153   0.000  1.00  0.00    -0.455 OA
ATOM     23  C   UNL     1      -4.149   1.214   0.000  1.00  0.00     0.020 C 
ATOM     24  C   UNL     1      -5.544  -0.117   0.000  1.00  0.00     0.020 C 
ATOM     25  C   UNL     1      -0.990   0.373   0.000  1.00  0.00     0.021 C 
ATOM     26  O   UNL     1      -5.933  -2.077   0.000  1.00  0.00    -0.294 OA
ATOM     27  C   UNL     1       1.032  -3.173   0.000  1.00  0.00     0.058 C 
ATOM     28  C   UNL     1       2.697   1.467   0.000  1.00  0.00     0.017 C 
ATOM     29  O   UNL     1       4.489  -3.750   0.000  1.00  0.00    -0.249 OA
BRANCH  13  30
ATOM     30  O   UNL     1      -1.369   1.526   0.000  1.00  0.00    -0.392 OA
ATOM     31  H   UNL     1       0.000   0.000   0.000  1.00  0.00     0.210 HD
ENDBRANCH  13  30
BRANCH  18  32
ATOM     32  O   UNL     1       1.844  -3.434   0.000  1.00  0.00    -0.381 OA
ATOM     33  H   UNL     1       0.000   0.000   0.000  1.00  0.00     0.211 HD
ENDBRANCH  18  32
BRANCH  21  34
ATOM     34  C   UNL     1       4.339   1.444   0.000  1.00  0.00     0.031 A 
ATOM     35  C   UNL     1       3.689   2.796   0.000  1.00  0.00     0.202 A 
ATOM     36  C   UNL     1       5.825   1.643   0.000  1.00  0.00     0.049 A 
ATOM     37  O   UNL     1       4.774   3.831   0.000  1.00  0.00    -0.472 OA
ATOM     38  C   UNL     1       6.095   3.119   0.000  1.00  0.00     0.195 A 
ENDBRANCH  21  34
ENDBRANCH   1   6
TORSDOF 6
