REMARK SMILES CC(C)=CCCC(C)=CCOc1ccc2ccc(=O)oc2c1
REMARK SMILES IDX 7 1 8 2 6 3 5 4 4 5 2 6 1 7 3 8 9 9 10 10 11 11 12 12 13 13
REMARK SMILES IDX 22 14 14 15 21 16 15 17 20 18 16 19 18 20 17 21 19 22
REMARK H PARENT
ROOT
ATOM      1  C   UNL     1      -3.476  -2.017   0.000  1.00  0.00    -0.074 C 
ATOM      2  C   UNL     1      -4.576  -3.037   0.000  1.00  0.00     0.039 C 
ENDROOT
BRANCH   1   3
ATOM      3  C   UNL     1      -3.810  -0.555   0.000  1.00  0.00     0.034 C 
BRANCH   3   4
ATOM      4  C   UNL     1      -5.244  -0.113   0.000  1.00  0.00     0.032 C 
BRANCH   4   5
ATOM      5  C   UNL     1      -5.577   1.350   0.000  1.00  0.00    -0.028 C 
BRANCH   5   6
ATOM      6  C   UNL     1      -7.011   1.792   0.000  1.00  0.00    -0.080 C 
ATOM      7  C   UNL     1      -7.344   3.254   0.000  1.00  0.00     0.039 C 
ATOM      8  C   UNL     1      -8.110   0.772   0.000  1.00  0.00     0.039 C 
ENDBRANCH   5   6
ENDBRANCH   4   5
ENDBRANCH   3   4
ENDBRANCH   1   3
BRANCH   1   9
ATOM      9  C   UNL     1      -2.043  -2.459   0.000  1.00  0.00     0.013 C 
BRANCH   9  10
ATOM     10  C   UNL     1      -0.943  -1.439   0.000  1.00  0.00     0.257 C 
BRANCH  10  11
ATOM     11  O   UNL     1       0.490  -1.881   0.000  1.00  0.00    -0.489 OA
BRANCH  11  12
ATOM     12  C   UNL     1       1.589  -0.861   0.000  1.00  0.00     0.123 A 
ATOM     13  C   UNL     1       1.256   0.601   0.000  1.00  0.00     0.047 A 
ATOM     14  C   UNL     1       3.023  -1.303   0.000  1.00  0.00     0.094 A 
ATOM     15  C   UNL     1       2.355   1.621   0.000  1.00  0.00     0.016 A 
ATOM     16  C   UNL     1       4.122  -0.283   0.000  1.00  0.00     0.142 A 
ATOM     17  C   UNL     1       3.789   1.179   0.000  1.00  0.00     0.018 A 
ATOM     18  O   UNL     1       5.556  -0.725   0.000  1.00  0.00    -0.423 OA
ATOM     19  C   UNL     1       4.888   2.200   0.000  1.00  0.00     0.019 A 
ATOM     20  C   UNL     1       6.655   0.295   0.000  1.00  0.00     0.336 A 
ATOM     21  C   UNL     1       6.322   1.757   0.000  1.00  0.00     0.094 A 
ATOM     22  O   UNL     1       8.089  -0.147   0.000  1.00  0.00    -0.246 OA
ENDBRANCH  11  12
ENDBRANCH  10  11
ENDBRANCH   9  10
ENDBRANCH   1   9
TORSDOF 8
