REMARK SMILES CC(=CC(=O)O)CC[C@@H]1C(C)=CC[C@@H]2C(C)(C)CCC[C@@]12C
REMARK SMILES IDX 1 1 2 2 3 3 4 4 5 5 6 6 7 8 8 9 9 10 10 11 21 12 12 13 20 14
REMARK SMILES IDX 14 15 13 16 19 17 15 18 18 19 11 20 22 21 16 22 17 23
REMARK H PARENT 6 7
ROOT
ATOM      1  C   UNL     1      -4.700  -1.681   0.000  1.00  0.00     0.040 C 
ATOM      2  C   UNL     1      -3.565  -0.700   0.000  1.00  0.00    -0.066 C 
ENDROOT
BRANCH   2   3
ATOM      3  C   UNL     1      -3.848   0.774   0.000  1.00  0.00     0.092 C 
BRANCH   3   4
ATOM      4  C   UNL     1      -5.265   1.266   0.000  1.00  0.00     0.328 C 
ATOM      5  O   UNL     1      -6.399   0.284   0.000  1.00  0.00    -0.247 OA
BRANCH   4   6
ATOM      6  O   UNL     1      -5.547   2.739   0.000  1.00  0.00    -0.478 OA
ATOM      7  H   UNL     1       0.000   0.000   0.000  1.00  0.00     0.297 HD
ENDBRANCH   4   6
ENDBRANCH   3   4
ENDBRANCH   2   3
BRANCH   2   8
ATOM      8  C   UNL     1      -2.148  -1.192   0.000  1.00  0.00     0.031 C 
BRANCH   8   9
ATOM      9  C   UNL     1      -1.014  -0.210   0.000  1.00  0.00     0.013 C 
BRANCH   9  10
ATOM     10  C   UNL     1       0.403  -0.703   0.000  1.00  0.00     0.021 C 
ATOM     11  C   UNL     1       0.686  -2.176   0.000  1.00  0.00    -0.074 C 
ATOM     12  C   UNL     1       1.538   0.279   0.000  1.00  0.00    -0.022 C 
ATOM     13  C   UNL     1       2.103  -2.668   0.000  1.00  0.00    -0.027 C 
ATOM     14  C   UNL     1       1.256   1.752   0.000  1.00  0.00     0.008 C 
ATOM     15  C   UNL     1       2.955  -0.213   0.000  1.00  0.00     0.005 C 
ATOM     16  C   UNL     1       3.237  -1.687   0.000  1.00  0.00     0.032 C 
ATOM     17  C   UNL     1       2.390   2.733   0.000  1.00  0.00     0.001 C 
ATOM     18  C   UNL     1       4.090   0.768   0.000  1.00  0.00    -0.032 C 
ATOM     19  C   UNL     1       3.807   2.241   0.000  1.00  0.00     0.007 C 
ATOM     20  C   UNL     1      -0.449  -3.157   0.000  1.00  0.00     0.039 C 
ATOM     21  C   UNL     1       0.121   0.771   0.000  1.00  0.00     0.012 C 
ATOM     22  C   UNL     1       5.491   1.302   0.000  1.00  0.00     0.011 C 
ATOM     23  C   UNL     1       4.859  -0.520   0.000  1.00  0.00     0.011 C 
ENDBRANCH   9  10
ENDBRANCH   8   9
ENDBRANCH   2   8
TORSDOF 6
