REMARK SMILES C=CC(=C)CC[C@]1(C)[C@H](C)[C@@H](OC(=O)/C=C/C=C/CCCCC)[C@H](OC(C)=O)[C@@]23C(=C[C@H](OC(C)=O)C[C@@H]12)[C@@H](OC(C)=O)O[C@@H]3OC(C)=O
REMARK SMILES IDX 15 1 13 2 14 3 12 4 11 5 7 6 9 7 38 8 37 9 29 10 24 11 32 12
REMARK SMILES IDX 30 13 45 14 31 15 39 16 44 17 8 18 10 19 6 20 5 21 3 22 4 23
REMARK SMILES IDX 2 24 1 25 25 26 26 27 27 28 28 29 33 30 34 31 35 32 36 33
REMARK SMILES IDX 46 34 47 35 48 36 49 37 40 38 41 39 42 40 43 41 16 42 17 43
REMARK SMILES IDX 18 44 19 45 20 46 21 47 22 48 23 49
REMARK H PARENT
ROOT
ATOM      1  C   UNL     1      -3.619  -0.868   0.000  1.00  0.00     0.093 C 
ENDROOT
BRANCH   1   2
ATOM      2  C   UNL     1      -2.319  -0.119   0.000  1.00  0.00     0.331 C 
ATOM      3  O   UNL     1      -2.317   1.381   0.000  1.00  0.00    -0.247 OA
BRANCH   2   4
ATOM      4  O   UNL     1      -1.021  -0.871   0.000  1.00  0.00    -0.455 OA
BRANCH   4   5
ATOM      5  C   UNL     1       0.279  -0.122   0.000  1.00  0.00     0.222 C 
ATOM      6  C   UNL     1       1.581   2.127   0.000  1.00  0.00    -0.022 C 
ATOM      7  C   UNL     1       0.281   1.378   0.000  1.00  0.00     0.037 C 
ATOM      8  C   UNL     1       2.879   1.375   0.000  1.00  0.00     0.020 C 
ATOM      9  C   UNL     1       4.179   2.124   0.000  1.00  0.00     0.055 C 
ATOM     10  C   UNL     1       2.877  -0.125   0.000  1.00  0.00     0.104 C 
ATOM     11  C   UNL     1       1.577  -0.873   0.000  1.00  0.00     0.234 C 
ATOM     12  C   UNL     1       5.477   1.373   0.000  1.00  0.00     0.200 C 
ATOM     13  C   UNL     1       4.176  -0.876   0.000  1.00  0.00     0.014 C 
ATOM     14  C   UNL     1       1.762  -1.127   0.000  1.00  0.00     0.329 C 
ATOM     15  C   UNL     1       5.475  -0.128   0.000  1.00  0.00     0.024 C 
ATOM     16  C   UNL     1       3.862  -2.343   0.000  1.00  0.00     0.343 C 
ATOM     17  O   UNL     1       2.370  -2.498   0.000  1.00  0.00    -0.298 OA
ATOM     18  C   UNL     1       2.546   3.275   0.000  1.00  0.00     0.012 C 
ATOM     19  C   UNL     1      -1.017   2.129   0.000  1.00  0.00     0.012 C 
BRANCH   6  20
ATOM     20  C   UNL     1       0.618   3.277   0.000  1.00  0.00     0.012 C 
BRANCH  20  21
ATOM     21  C   UNL     1       1.132   4.686   0.000  1.00  0.00     0.035 C 
BRANCH  21  22
ATOM     22  C   UNL     1       0.169   5.836   0.000  1.00  0.00    -0.056 C 
ATOM     23  C   UNL     1       0.684   7.245   0.000  1.00  0.00     0.012 C 
BRANCH  22  24
ATOM     24  C   UNL     1      -1.308   5.577   0.000  1.00  0.00    -0.005 C 
ATOM     25  C   UNL     1      -2.271   6.727   0.000  1.00  0.00     0.009 C 
ENDBRANCH  22  24
ENDBRANCH  21  22
ENDBRANCH  20  21
ENDBRANCH   6  20
BRANCH  11  26
ATOM     26  O   UNL     1       1.576  -2.373   0.000  1.00  0.00    -0.457 OA
BRANCH  26  27
ATOM     27  C   UNL     1       0.276  -3.122   0.000  1.00  0.00     0.303 C 
ATOM     28  C   UNL     1       0.275  -4.622   0.000  1.00  0.00     0.139 C 
ATOM     29  O   UNL     1      -1.165  -2.707   0.000  1.00  0.00    -0.253 OA
ENDBRANCH  26  27
ENDBRANCH  11  26
BRANCH  12  30
ATOM     30  O   UNL     1       6.777   2.121   0.000  1.00  0.00    -0.458 OA
BRANCH  30  31
ATOM     31  C   UNL     1       8.075   1.370   0.000  1.00  0.00     0.303 C 
ATOM     32  C   UNL     1       9.375   2.118   0.000  1.00  0.00     0.139 C 
ATOM     33  O   UNL     1       8.073  -0.130   0.000  1.00  0.00    -0.253 OA
ENDBRANCH  30  31
ENDBRANCH  12  30
BRANCH  14  34
ATOM     34  O   UNL     1       0.295  -0.814   0.000  1.00  0.00    -0.435 OA
BRANCH  34  35
ATOM     35  C   UNL     1      -0.710  -1.927   0.000  1.00  0.00     0.304 C 
ATOM     36  C   UNL     1      -2.177  -1.614   0.000  1.00  0.00     0.139 C 
ATOM     37  O   UNL     1      -0.607  -3.424   0.000  1.00  0.00    -0.253 OA
ENDBRANCH  34  35
ENDBRANCH  14  34
BRANCH  16  38
ATOM     38  O   UNL     1       4.865  -3.459   0.000  1.00  0.00    -0.432 OA
BRANCH  38  39
ATOM     39  C   UNL     1       4.400  -4.885   0.000  1.00  0.00     0.305 C 
ATOM     40  C   UNL     1       5.402  -6.001   0.000  1.00  0.00     0.139 C 
ATOM     41  O   UNL     1       2.932  -5.195   0.000  1.00  0.00    -0.253 OA
ENDBRANCH  38  39
ENDBRANCH  16  38
ENDBRANCH   4   5
ENDBRANCH   2   4
ENDBRANCH   1   2
BRANCH   1  42
ATOM     42  C   UNL     1      -4.917  -0.117   0.000  1.00  0.00     0.007 C 
BRANCH  42  43
ATOM     43  C   UNL     1      -6.217  -0.865   0.000  1.00  0.00    -0.004 C 
BRANCH  43  44
ATOM     44  C   UNL     1      -7.515  -0.114   0.000  1.00  0.00    -0.027 C 
BRANCH  44  45
ATOM     45  C   UNL     1      -8.815  -0.862   0.000  1.00  0.00     0.027 C 
BRANCH  45  46
ATOM     46  C   UNL     1     -10.113  -0.111   0.000  1.00  0.00     0.004 C 
BRANCH  46  47
ATOM     47  C   UNL     1     -11.413  -0.860   0.000  1.00  0.00     0.000 C 
BRANCH  47  48
ATOM     48  C   UNL     1     -12.711  -0.108   0.000  1.00  0.00    -0.003 C 
ATOM     49  C   UNL     1     -14.011  -0.857   0.000  1.00  0.00     0.004 C 
ENDBRANCH  47  48
ENDBRANCH  46  47
ENDBRANCH  45  46
ENDBRANCH  44  45
ENDBRANCH  43  44
ENDBRANCH  42  43
ENDBRANCH   1  42
TORSDOF 22
