REMARK SMILES COc1ccc(-c2cc(=O)c3c(O)c4c(c(OC)c3o2)OC(C)(C)C=C4)cc1OC
REMARK SMILES IDX 7 1 8 2 9 3 10 4 11 5 12 6 14 7 15 8 21 9 22 10 23 11 24 12
REMARK SMILES IDX 25 13 26 14 16 15 19 16 20 17 6 18 3 19 4 20 28 21 5 22
REMARK SMILES IDX 27 23 2 24 1 25 29 26 30 27 17 28 18 29 13 30
REMARK H PARENT 13 31
ROOT
ATOM      1  C   UNL     1      -1.561   0.903   0.000  1.00  0.00     0.138 A 
ATOM      2  C   UNL     1      -1.127   2.339   0.000  1.00  0.00     0.100 A 
ATOM      3  C   UNL     1       0.334   2.681   0.000  1.00  0.00     0.197 A 
ATOM      4  O   UNL     1       0.767   4.117   0.000  1.00  0.00    -0.289 OA
ATOM      5  C   UNL     1       1.360   1.588   0.000  1.00  0.00     0.111 A 
ATOM      6  C   UNL     1       2.821   1.930   0.000  1.00  0.00     0.141 A 
ATOM      7  C   UNL     1       3.847   0.836   0.000  1.00  0.00     0.063 A 
ATOM      8  C   UNL     1       3.414  -0.600   0.000  1.00  0.00     0.177 A 
ATOM      9  O   UNL     1       4.440  -1.693   0.000  1.00  0.00    -0.479 OA
ATOM     10  C   UNL     1       5.901  -1.351   0.000  1.00  0.00     0.122 C 
ATOM     11  C   UNL     1       7.390  -1.529   0.000  1.00  0.00     0.061 C 
ATOM     12  C   UNL     1       5.984  -2.849   0.000  1.00  0.00     0.061 C 
ATOM     13  C   UNL     1       6.334   0.085   0.000  1.00  0.00     0.021 C 
ATOM     14  C   UNL     1       5.308   1.179   0.000  1.00  0.00     0.016 C 
ATOM     15  C   UNL     1       1.953  -0.942   0.000  1.00  0.00     0.205 A 
ATOM     16  C   UNL     1       0.926   0.152   0.000  1.00  0.00     0.188 A 
ATOM     17  O   UNL     1      -0.534  -0.190   0.000  1.00  0.00    -0.452 OA
ENDROOT
BRANCH   1  18
ATOM     18  C   UNL     1      -3.021   0.561   0.000  1.00  0.00     0.021 A 
ATOM     19  C   UNL     1      -5.942  -0.124   0.000  1.00  0.00     0.160 A 
ATOM     20  C   UNL     1      -5.508   1.312   0.000  1.00  0.00     0.051 A 
ATOM     21  C   UNL     1      -4.915  -1.217   0.000  1.00  0.00     0.161 A 
ATOM     22  C   UNL     1      -4.048   1.655   0.000  1.00  0.00     0.016 A 
ATOM     23  C   UNL     1      -3.455  -0.875   0.000  1.00  0.00     0.062 A 
BRANCH  19  24
ATOM     24  O   UNL     1      -7.402  -0.466   0.000  1.00  0.00    -0.493 OA
ATOM     25  C   UNL     1      -8.429   0.628   0.000  1.00  0.00     0.278 C 
ENDBRANCH  19  24
BRANCH  21  26
ATOM     26  O   UNL     1      -5.349  -2.653   0.000  1.00  0.00    -0.493 OA
ATOM     27  C   UNL     1      -4.322  -3.747   0.000  1.00  0.00     0.278 C 
ENDBRANCH  21  26
ENDBRANCH   1  18
BRANCH  15  28
ATOM     28  O   UNL     1       1.519  -2.378   0.000  1.00  0.00    -0.490 OA
ATOM     29  C   UNL     1       0.059  -2.720   0.000  1.00  0.00     0.278 C 
ENDBRANCH  15  28
BRANCH   6  30
ATOM     30  O   UNL     1       3.255   3.366   0.000  1.00  0.00    -0.506 OA
ATOM     31  H   UNL     1       0.000   0.000   0.000  1.00  0.00     0.293 HD
ENDBRANCH   6  30
TORSDOF 5
