REMARK SMILES COc1cc(O)c(-c2oc3cc(OC)c(OC)c(OC)c3c(=O)c2OC)cc1O
REMARK SMILES IDX 8 1 24 2 22 3 23 4 21 5 18 6 15 7 12 8 11 9 10 10 9 11 7 12
REMARK SMILES IDX 3 13 4 14 28 15 5 16 27 17 2 18 1 19 29 20 6 22 25 24 26 25
REMARK SMILES IDX 19 26 20 27 13 28 14 29 16 30 17 31
REMARK H PARENT 29 21 6 23
ROOT
ATOM      1  C   UNL     1      -1.030  -0.085   0.000  1.00  0.00     0.184 A 
ATOM      2  C   UNL     1      -0.462  -1.474   0.000  1.00  0.00     0.211 A 
ATOM      3  C   UNL     1       1.024  -1.677   0.000  1.00  0.00     0.239 A 
ATOM      4  O   UNL     1       1.591  -3.066   0.000  1.00  0.00    -0.285 OA
ATOM      5  C   UNL     1       1.943  -0.491   0.000  1.00  0.00     0.115 A 
ATOM      6  C   UNL     1       3.429  -0.695   0.000  1.00  0.00     0.179 A 
ATOM      7  C   UNL     1       4.348   0.491   0.000  1.00  0.00     0.204 A 
ATOM      8  C   UNL     1       3.781   1.880   0.000  1.00  0.00     0.168 A 
ATOM      9  C   UNL     1       2.294   2.083   0.000  1.00  0.00     0.098 A 
ATOM     10  C   UNL     1       1.375   0.897   0.000  1.00  0.00     0.146 A 
ATOM     11  O   UNL     1      -0.111   1.100   0.000  1.00  0.00    -0.451 OA
ENDROOT
BRANCH   1  12
ATOM     12  C   UNL     1      -2.516   0.118   0.000  1.00  0.00     0.067 A 
ATOM     13  C   UNL     1      -5.488   0.524   0.000  1.00  0.00     0.164 A 
ATOM     14  C   UNL     1      -4.569   1.709   0.000  1.00  0.00     0.097 A 
ATOM     15  C   UNL     1      -4.921  -0.865   0.000  1.00  0.00     0.158 A 
ATOM     16  C   UNL     1      -3.083   1.506   0.000  1.00  0.00     0.130 A 
ATOM     17  C   UNL     1      -3.435  -1.068   0.000  1.00  0.00     0.066 A 
BRANCH  13  18
ATOM     18  O   UNL     1      -6.974   0.727   0.000  1.00  0.00    -0.493 OA
ATOM     19  C   UNL     1      -7.542   2.115   0.000  1.00  0.00     0.278 C 
ENDBRANCH  13  18
BRANCH  15  20
ATOM     20  O   UNL     1      -5.840  -2.050   0.000  1.00  0.00    -0.504 OA
ATOM     21  H   UNL     1       0.000   0.000   0.000  1.00  0.00     0.293 HD
ENDBRANCH  15  20
BRANCH  16  22
ATOM     22  O   UNL     1      -2.164   2.692   0.000  1.00  0.00    -0.507 OA
ATOM     23  H   UNL     1       0.000   0.000   0.000  1.00  0.00     0.293 HD
ENDBRANCH  16  22
ENDBRANCH   1  12
BRANCH   2  24
ATOM     24  O   UNL     1      -1.381  -2.659   0.000  1.00  0.00    -0.490 OA
ATOM     25  C   UNL     1      -2.868  -2.457   0.000  1.00  0.00     0.278 C 
ENDBRANCH   2  24
BRANCH   6  26
ATOM     26  O   UNL     1       3.996  -2.083   0.000  1.00  0.00    -0.492 OA
ATOM     27  C   UNL     1       5.482  -2.286   0.000  1.00  0.00     0.278 C 
ENDBRANCH   6  26
BRANCH   8  28
ATOM     28  O   UNL     1       4.700   3.065   0.000  1.00  0.00    -0.493 OA
ATOM     29  C   UNL     1       6.186   2.862   0.000  1.00  0.00     0.278 C 
ENDBRANCH   8  28
BRANCH   7  30
ATOM     30  O   UNL     1       5.834   0.288   0.000  1.00  0.00    -0.490 OA
ATOM     31  C   UNL     1       6.401  -1.101   0.000  1.00  0.00     0.278 C 
ENDBRANCH   7  30
TORSDOF 8
