REMARK SMILES COC(=O)[C@]1(C)CC[C@]2(C)CC[C@]3(C)C4=CC=C5C(=CC(=O)[C@@]6(O)Oc7cc8c(c(C)c7O[C@@]56C)C(=O)C=C5[C@@]8(C)CC[C@@]6(C)[C@@H]7C[C@](C)(C(=O)OC)CC[C@]7(C)CC[C@]56C)[C@]4(C)CC[C@@]3(C)[C@@H]2C1
REMARK SMILES IDX 5 1 6 2 7 3 8 4 9 5 10 6 11 7 12 8 13 9 14 10 15 11 16 12
REMARK SMILES IDX 17 13 18 14 19 15 20 16 21 17 22 18 23 19 25 20 26 21 27 22
REMARK SMILES IDX 28 23 29 24 36 25 37 26 38 27 39 28 40 29 41 30 42 31 43 32
REMARK SMILES IDX 44 33 45 34 46 35 47 36 48 37 49 38 54 39 55 40 56 41 57 42
REMARK SMILES IDX 58 43 59 44 60 45 61 46 30 47 31 48 32 49 33 50 34 51 35 52
REMARK SMILES IDX 62 53 63 54 64 55 65 56 66 57 67 58 68 59 69 60 3 61 4 62
REMARK SMILES IDX 2 63 1 64 24 65 50 67 51 68 52 69 53 70
REMARK H PARENT 24 66
ROOT
ATOM      1  C   UNL     1     -12.129  -1.108   0.000  1.00  0.00     0.066 C 
ATOM      2  C   UNL     1     -12.059  -2.606   0.000  1.00  0.00     0.024 C 
ATOM      3  C   UNL     1     -12.708   0.276   0.000  1.00  0.00     0.019 C 
ATOM      4  C   UNL     1     -11.799   1.469   0.000  1.00  0.00     0.008 C 
ATOM      5  C   UNL     1     -10.311   1.278   0.000  1.00  0.00    -0.029 C 
ATOM      6  C   UNL     1     -10.890   2.662   0.000  1.00  0.00     0.011 C 
ATOM      7  C   UNL     1      -9.402   2.471   0.000  1.00  0.00     0.008 C 
ATOM      8  C   UNL     1      -7.914   2.281   0.000  1.00  0.00     0.012 C 
ATOM      9  C   UNL     1      -7.335   0.897   0.000  1.00  0.00    -0.005 C 
ATOM     10  C   UNL     1      -6.426   2.090   0.000  1.00  0.00     0.017 C 
ATOM     11  C   UNL     1      -5.848   0.706   0.000  1.00  0.00    -0.053 C 
ATOM     12  C   UNL     1      -4.939   1.899   0.000  1.00  0.00     0.001 C 
ATOM     13  C   UNL     1      -3.451   1.709   0.000  1.00  0.00     0.008 C 
ATOM     14  C   UNL     1      -2.872   0.325   0.000  1.00  0.00     0.007 C 
ATOM     15  C   UNL     1      -3.781  -0.868   0.000  1.00  0.00    -0.027 C 
ATOM     16  C   UNL     1      -3.202  -2.252   0.000  1.00  0.00     0.059 C 
ATOM     17  C   UNL     1      -1.714  -2.443   0.000  1.00  0.00     0.232 C 
ATOM     18  O   UNL     1      -1.135  -3.827   0.000  1.00  0.00    -0.287 OA
ATOM     19  C   UNL     1      -0.805  -1.250   0.000  1.00  0.00     0.317 C 
ATOM     20  O   UNL     1       0.683  -1.440   0.000  1.00  0.00    -0.447 OA
ATOM     21  C   UNL     1       1.592  -0.247   0.000  1.00  0.00     0.166 A 
ATOM     22  C   UNL     1       3.079  -0.438   0.000  1.00  0.00     0.056 A 
ATOM     23  C   UNL     1       3.989   0.755   0.000  1.00  0.00    -0.023 A 
ATOM     24  C   UNL     1       3.410   2.139   0.000  1.00  0.00     0.033 A 
ATOM     25  C   UNL     1       4.319   3.332   0.000  1.00  0.00     0.186 C 
ATOM     26  O   UNL     1       3.740   4.716   0.000  1.00  0.00    -0.289 OA
ATOM     27  C   UNL     1       5.807   3.142   0.000  1.00  0.00     0.053 C 
ATOM     28  C   UNL     1       6.385   1.758   0.000  1.00  0.00    -0.050 C 
ATOM     29  C   UNL     1       5.476   0.565   0.000  1.00  0.00     0.015 C 
ATOM     30  C   UNL     1       4.567  -0.629   0.000  1.00  0.00     0.021 C 
ATOM     31  C   UNL     1       6.055  -0.819   0.000  1.00  0.00     0.016 C 
ATOM     32  C   UNL     1       7.543  -1.010   0.000  1.00  0.00     0.009 C 
ATOM     33  C   UNL     1       8.452   0.183   0.000  1.00  0.00    -0.020 C 
ATOM     34  C   UNL     1       9.031  -1.201   0.000  1.00  0.00     0.012 C 
ATOM     35  C   UNL     1       9.940  -0.007   0.000  1.00  0.00     0.003 C 
ATOM     36  C   UNL     1      10.519  -1.391   0.000  1.00  0.00     0.023 C 
ATOM     37  C   UNL     1      12.006  -1.582   0.000  1.00  0.00     0.066 C 
ATOM     38  C   UNL     1      13.339  -2.270   0.000  1.00  0.00     0.024 C 
ATOM     39  C   UNL     1      12.915  -0.389   0.000  1.00  0.00     0.019 C 
ATOM     40  C   UNL     1      12.337   0.995   0.000  1.00  0.00     0.008 C 
ATOM     41  C   UNL     1      10.849   1.186   0.000  1.00  0.00    -0.029 C 
ATOM     42  C   UNL     1      11.758   2.379   0.000  1.00  0.00     0.011 C 
ATOM     43  C   UNL     1      10.270   2.570   0.000  1.00  0.00     0.008 C 
ATOM     44  C   UNL     1       8.782   2.760   0.000  1.00  0.00     0.012 C 
ATOM     45  C   UNL     1       7.873   1.567   0.000  1.00  0.00    -0.005 C 
ATOM     46  C   UNL     1       7.295   2.951   0.000  1.00  0.00     0.017 C 
ATOM     47  C   UNL     1       1.922   2.330   0.000  1.00  0.00     0.006 A 
ATOM     48  C   UNL     1       1.343   3.714   0.000  1.00  0.00     0.049 C 
ATOM     49  C   UNL     1       1.013   1.137   0.000  1.00  0.00     0.166 A 
ATOM     50  O   UNL     1      -0.475   1.327   0.000  1.00  0.00    -0.471 OA
ATOM     51  C   UNL     1      -1.384   0.134   0.000  1.00  0.00     0.204 C 
ATOM     52  C   UNL     1      -1.963   1.518   0.000  1.00  0.00     0.070 C 
ATOM     53  C   UNL     1      -5.269  -0.678   0.000  1.00  0.00     0.015 C 
ATOM     54  C   UNL     1      -4.690  -2.061   0.000  1.00  0.00     0.021 C 
ATOM     55  C   UNL     1      -6.178  -1.871   0.000  1.00  0.00     0.016 C 
ATOM     56  C   UNL     1      -7.666  -1.680   0.000  1.00  0.00     0.009 C 
ATOM     57  C   UNL     1      -8.244  -0.296   0.000  1.00  0.00    -0.020 C 
ATOM     58  C   UNL     1      -9.153  -1.489   0.000  1.00  0.00     0.012 C 
ATOM     59  C   UNL     1      -9.732  -0.105   0.000  1.00  0.00     0.003 C 
ATOM     60  C   UNL     1     -10.641  -1.299   0.000  1.00  0.00     0.023 C 
ENDROOT
BRANCH   1  61
ATOM     61  C   UNL     1     -13.592  -1.438   0.000  1.00  0.00     0.311 C 
ATOM     62  O   UNL     1     -14.039  -2.870   0.000  1.00  0.00    -0.252 OA
BRANCH  61  63
ATOM     63  O   UNL     1     -14.610  -0.335   0.000  1.00  0.00    -0.469 OA
ATOM     64  C   UNL     1     -16.073  -0.665   0.000  1.00  0.00     0.282 C 
ENDBRANCH  61  63
ENDBRANCH   1  61
BRANCH  19  65
ATOM     65  O   UNL     1      -0.227  -2.634   0.000  1.00  0.00    -0.347 OA
ATOM     66  H   UNL     1       0.000   0.000   0.000  1.00  0.00     0.215 HD
ENDBRANCH  19  65
BRANCH  37  67
ATOM     67  C   UNL     1      11.560  -3.014   0.000  1.00  0.00     0.311 C 
ATOM     68  O   UNL     1      10.097  -3.344   0.000  1.00  0.00    -0.252 OA
BRANCH  67  69
ATOM     69  O   UNL     1      12.578  -4.117   0.000  1.00  0.00    -0.469 OA
ATOM     70  C   UNL     1      12.131  -5.549   0.000  1.00  0.00     0.282 C 
ENDBRANCH  67  69
ENDBRANCH  37  67
TORSDOF 5
