REMARK SMILES C=C(C)C(Cl)CC=C(C)[C@@H]1CC[C@@]2(C)OC3=C(C[C@@H]12)C(=O)[C@]1(O)CO[C@H]3C1
REMARK SMILES IDX 7 1 6 2 4 3 5 4 2 5 1 6 3 7 8 8 9 9 10 10 11 11 19 12 12 13
REMARK SMILES IDX 18 14 13 15 17 16 15 17 16 18 20 19 26 20 22 21 25 22 27 23
REMARK SMILES IDX 24 24 14 25 21 26 23 27
REMARK H PARENT 23 28
ROOT
ATOM      1  C   UNL     1       2.620   0.640   0.000  1.00  0.00    -0.026 C 
ENDROOT
BRANCH   1   2
ATOM      2  C   UNL     1       4.054   0.201   0.000  1.00  0.00     0.051 C 
BRANCH   2   3
ATOM      3  C   UNL     1       4.391  -1.261   0.000  1.00  0.00     0.110 C 
ATOM      4  Cl  UNL     1       3.293  -2.283   0.000  1.00  0.00    -0.118 Cl
BRANCH   3   5
ATOM      5  C   UNL     1       5.825  -1.700   0.000  1.00  0.00    -0.062 C 
ATOM      6  C   UNL     1       6.922  -0.678   0.000  1.00  0.00     0.009 C 
ATOM      7  C   UNL     1       6.161  -3.162   0.000  1.00  0.00     0.040 C 
ENDBRANCH   3   5
ENDBRANCH   2   3
ENDBRANCH   1   2
BRANCH   1   8
ATOM      8  C   UNL     1       2.283   2.102   0.000  1.00  0.00    -0.074 C 
ATOM      9  C   UNL     1       3.381   3.124   0.000  1.00  0.00     0.039 C 
BRANCH   8  10
ATOM     10  C   UNL     1       0.849   2.542   0.000  1.00  0.00     0.022 C 
ATOM     11  C   UNL     1       0.361   3.960   0.000  1.00  0.00     0.012 C 
ATOM     12  C   UNL     1      -0.349   1.640   0.000  1.00  0.00     0.045 C 
ATOM     13  C   UNL     1      -1.138   3.935   0.000  1.00  0.00     0.049 C 
ATOM     14  C   UNL     1      -0.481   0.145   0.000  1.00  0.00     0.051 C 
ATOM     15  C   UNL     1      -1.578   2.501   0.000  1.00  0.00     0.110 C 
ATOM     16  C   UNL     1      -1.841  -0.488   0.000  1.00  0.00     0.039 C 
ATOM     17  O   UNL     1      -2.938   1.867   0.000  1.00  0.00    -0.488 OA
ATOM     18  C   UNL     1      -3.069   0.373   0.000  1.00  0.00     0.133 C 
ATOM     19  C   UNL     1      -1.972  -1.982   0.000  1.00  0.00     0.196 C 
ATOM     20  C   UNL     1      -4.357  -0.415   0.000  1.00  0.00     0.187 C 
ATOM     21  C   UNL     1      -3.332  -2.615   0.000  1.00  0.00     0.153 C 
ATOM     22  O   UNL     1      -5.454  -1.437   0.000  1.00  0.00    -0.367 OA
ATOM     23  C   UNL     1      -3.045  -1.143   0.000  1.00  0.00     0.086 C 
ATOM     24  C   UNL     1      -4.821  -2.797   0.000  1.00  0.00     0.205 C 
ATOM     25  C   UNL     1      -2.709   3.485   0.000  1.00  0.00     0.057 C 
ATOM     26  O   UNL     1      -0.744  -2.843   0.000  1.00  0.00    -0.291 OA
BRANCH  21  27
ATOM     27  O   UNL     1      -2.310  -3.713   0.000  1.00  0.00    -0.379 OA
ATOM     28  H   UNL     1       0.000   0.000   0.000  1.00  0.00     0.212 HD
ENDBRANCH  21  27
ENDBRANCH   8  10
ENDBRANCH   1   8
TORSDOF 6
