REMARK SMILES COc1c(C(=O)CC(=O)c2ccccc2)ccc2c1C=CC(C)(C)O2
REMARK SMILES IDX 5 1 6 2 4 3 3 4 19 5 16 6 18 7 20 8 17 9 25 10 21 11 22 12
REMARK SMILES IDX 23 13 24 14 2 15 1 16 7 17 8 18 9 19 10 20 11 21 15 22 12 23
REMARK SMILES IDX 14 24 13 25
REMARK H PARENT
ROOT
ATOM      1  C   UNL     1      -0.874  -0.885   0.000  1.00  0.00     0.174 C 
ATOM      2  O   UNL     1      -0.983  -2.381   0.000  1.00  0.00    -0.294 OA
ENDROOT
BRANCH   1   3
ATOM      3  C   UNL     1       0.476  -0.231   0.000  1.00  0.00     0.061 A 
ATOM      4  C   UNL     1       1.717  -1.074   0.000  1.00  0.00     0.140 A 
ATOM      5  C   UNL     1       3.068  -0.420   0.000  1.00  0.00     0.059 A 
ATOM      6  C   UNL     1       0.586   1.265   0.000  1.00  0.00     0.019 A 
ATOM      7  C   UNL     1       3.177   1.076   0.000  1.00  0.00     0.131 A 
ATOM      8  C   UNL     1       4.309  -1.263   0.000  1.00  0.00     0.015 C 
ATOM      9  C   UNL     1       1.936   1.918   0.000  1.00  0.00     0.048 A 
ATOM     10  O   UNL     1       4.527   1.729   0.000  1.00  0.00    -0.483 OA
ATOM     11  C   UNL     1       5.659  -0.609   0.000  1.00  0.00     0.021 C 
ATOM     12  C   UNL     1       5.768   0.887   0.000  1.00  0.00     0.122 C 
ATOM     13  C   UNL     1       6.382   2.255   0.000  1.00  0.00     0.061 C 
ATOM     14  C   UNL     1       7.222   0.519   0.000  1.00  0.00     0.061 C 
BRANCH   4  15
ATOM     15  O   UNL     1       1.608  -2.570   0.000  1.00  0.00    -0.495 OA
ATOM     16  C   UNL     1       0.258  -3.223   0.000  1.00  0.00     0.278 C 
ENDBRANCH   4  15
ENDBRANCH   1   3
BRANCH   1  17
ATOM     17  C   UNL     1      -2.115  -0.042   0.000  1.00  0.00     0.162 C 
BRANCH  17  18
ATOM     18  C   UNL     1      -3.465  -0.696   0.000  1.00  0.00     0.170 C 
ATOM     19  O   UNL     1      -3.574  -2.192   0.000  1.00  0.00    -0.294 OA
BRANCH  18  20
ATOM     20  C   UNL     1      -4.706   0.147   0.000  1.00  0.00     0.018 A 
ATOM     21  C   UNL     1      -4.597   1.643   0.000  1.00  0.00     0.012 A 
ATOM     22  C   UNL     1      -6.056  -0.507   0.000  1.00  0.00     0.012 A 
ATOM     23  C   UNL     1      -5.838   2.486   0.000  1.00  0.00     0.001 A 
ATOM     24  C   UNL     1      -7.297   0.336   0.000  1.00  0.00     0.001 A 
ATOM     25  C   UNL     1      -7.188   1.832   0.000  1.00  0.00     0.000 A 
ENDBRANCH  18  20
ENDBRANCH  17  18
ENDBRANCH   1  17
TORSDOF 5
