REMARK SMILES O=c1c(O[C@@H]2OC[C@@H](O)[C@H](O)[C@H]2O)c(-c2ccc(O)c(O)c2)oc2cc(O)cc(O)c12
REMARK SMILES IDX 1 1 2 2 3 3 14 4 23 5 24 6 25 7 26 8 28 9 29 10 31 11 4 12
REMARK SMILES IDX 5 13 6 14 12 15 7 16 10 17 8 18 13 19 11 21 9 23 15 25 16 26
REMARK SMILES IDX 22 27 17 28 20 29 18 30 21 31 19 33 30 35 27 37
REMARK H PARENT 13 20 11 22 9 24 21 32 19 34 30 36 27 38
ROOT
ATOM      1  O   UNL     1      -1.890   1.730   0.000  1.00  0.00    -0.285 OA
ATOM      2  C   UNL     1      -0.407   1.503   0.000  1.00  0.00     0.239 A 
ATOM      3  C   UNL     1       0.139   0.106   0.000  1.00  0.00     0.214 A 
ATOM      4  C   UNL     1       1.621  -0.120   0.000  1.00  0.00     0.180 A 
ATOM      5  O   UNL     1       2.559   1.051   0.000  1.00  0.00    -0.452 OA
ATOM      6  C   UNL     1       2.013   2.448   0.000  1.00  0.00     0.146 A 
ATOM      7  C   UNL     1       2.951   3.619   0.000  1.00  0.00     0.094 A 
ATOM      8  C   UNL     1       2.405   5.016   0.000  1.00  0.00     0.123 A 
ATOM      9  C   UNL     1       0.922   5.243   0.000  1.00  0.00     0.093 A 
ATOM     10  C   UNL     1      -0.015   4.072   0.000  1.00  0.00     0.134 A 
ATOM     11  C   UNL     1       0.530   2.674   0.000  1.00  0.00     0.111 A 
ENDROOT
BRANCH   3  12
ATOM     12  O   UNL     1      -0.799  -1.065   0.000  1.00  0.00    -0.454 OA
BRANCH  12  13
ATOM     13  C   UNL     1      -2.282  -0.839   0.000  1.00  0.00     0.339 C 
ATOM     14  O   UNL     1      -2.827   0.559   0.000  1.00  0.00    -0.338 OA
ATOM     15  C   UNL     1      -3.219  -2.010   0.000  1.00  0.00     0.214 C 
ATOM     16  C   UNL     1      -4.310   0.785   0.000  1.00  0.00     0.199 C 
ATOM     17  C   UNL     1      -4.702  -1.784   0.000  1.00  0.00     0.180 C 
ATOM     18  C   UNL     1      -5.247  -0.386   0.000  1.00  0.00     0.171 C 
BRANCH  15  19
ATOM     19  O   UNL     1      -2.674  -3.407   0.000  1.00  0.00    -0.384 OA
ATOM     20  H   UNL     1       0.000   0.000   0.000  1.00  0.00     0.211 HD
ENDBRANCH  15  19
BRANCH  17  21
ATOM     21  O   UNL     1      -5.639  -2.954   0.000  1.00  0.00    -0.387 OA
ATOM     22  H   UNL     1       0.000   0.000   0.000  1.00  0.00     0.211 HD
ENDBRANCH  17  21
BRANCH  18  23
ATOM     23  O   UNL     1      -6.730  -0.160   0.000  1.00  0.00    -0.388 OA
ATOM     24  H   UNL     1       0.000   0.000   0.000  1.00  0.00     0.211 HD
ENDBRANCH  18  23
ENDBRANCH  12  13
ENDBRANCH   3  12
BRANCH   4  25
ATOM     25  C   UNL     1       2.167  -1.518   0.000  1.00  0.00     0.025 A 
ATOM     26  C   UNL     1       1.229  -2.689   0.000  1.00  0.00     0.016 A 
ATOM     27  C   UNL     1       3.650  -1.744   0.000  1.00  0.00     0.062 A 
ATOM     28  C   UNL     1       1.775  -4.086   0.000  1.00  0.00     0.051 A 
ATOM     29  C   UNL     1       4.195  -3.141   0.000  1.00  0.00     0.158 A 
ATOM     30  C   UNL     1       3.258  -4.312   0.000  1.00  0.00     0.157 A 
BRANCH  29  31
ATOM     31  O   UNL     1       5.678  -3.368   0.000  1.00  0.00    -0.504 OA
ATOM     32  H   UNL     1       0.000   0.000   0.000  1.00  0.00     0.293 HD
ENDBRANCH  29  31
BRANCH  30  33
ATOM     33  O   UNL     1       3.803  -5.710   0.000  1.00  0.00    -0.504 OA
ATOM     34  H   UNL     1       0.000   0.000   0.000  1.00  0.00     0.293 HD
ENDBRANCH  30  33
ENDBRANCH   4  25
BRANCH  10  35
ATOM     35  O   UNL     1      -1.498   4.298   0.000  1.00  0.00    -0.507 OA
ATOM     36  H   UNL     1       0.000   0.000   0.000  1.00  0.00     0.293 HD
ENDBRANCH  10  35
BRANCH   8  37
ATOM     37  O   UNL     1       3.343   6.188   0.000  1.00  0.00    -0.508 OA
ATOM     38  H   UNL     1       0.000   0.000   0.000  1.00  0.00     0.293 HD
ENDBRANCH   8  37
TORSDOF 10
