REMARK SMILES C=C1CC/C=C(/C)CC[C@@H]2[C@@H]1CC2(C)C
REMARK SMILES IDX 9 1 10 2 11 3 12 4 13 5 14 6 15 7 2 8 1 9 3 10 8 12 6 13
REMARK SMILES IDX 7 14 5 15 4 16
REMARK H PARENT
REMARK Flexibility Score:   15.900
ROOT
ATOM      1  C   UNL     1      -0.022   1.758   0.000  1.00  0.00     0.009 C 
ENDROOT
BRANCH   1   2
ATOM      2  C   UNL     1       1.027   0.686   0.000  1.00  0.00     0.002 C 
ATOM      3  C   UNL     1       1.142  -0.810   0.000  1.00  0.00     0.018 C 
ATOM      4  C   UNL     1       2.638  -0.695   0.000  1.00  0.00     0.015 C 
ATOM      5  C   UNL     1       2.523   0.800   0.000  1.00  0.00    -0.031 C 
ATOM      6  C   UNL     1       2.408   2.296   0.000  1.00  0.00     0.011 C 
ATOM      7  C   UNL     1       4.018   0.915   0.000  1.00  0.00     0.011 C 
BRANCH   3   8
ATOM      8  C   UNL     1       0.269  -2.030   0.000  1.00  0.00    -0.074 C 
ATOM      9  C   UNL     1       1.116  -3.267   0.000  1.00  0.00     0.008 C 
BRANCH   8  10
ATOM     10  C   UNL     1      -1.184  -2.402   0.000  1.00  0.00     0.035 CG0
ATOM     11  G   UNL     1      -2.537  -1.754   0.000  1.00  0.00     0.000 G0
ENDBRANCH   8  10
ENDBRANCH   3   8
ENDBRANCH   1   2
BRANCH   1  12
ATOM     12  C   UNL     1      -1.515   1.904   0.000  1.00  0.00     0.030 C 
BRANCH  12  13
ATOM     13  C   UNL     1      -2.753   1.057   0.000  1.00  0.00    -0.077 C 
ATOM     14  C   UNL     1      -3.972   1.930   0.000  1.00  0.00     0.039 C 
BRANCH  13  15
ATOM     15  C   UNL     1      -3.156  -0.388   0.000  1.00  0.00    -0.028 C 
BRANCH  15  16
ATOM     16  C   UNL     1      -2.537  -1.754   0.000  1.00  0.00     0.032 CG0
ATOM     17  G   UNL     1      -1.184  -2.402   0.000  1.00  0.00     0.000 G0
ENDBRANCH  15  16
ENDBRANCH  13  15
ENDBRANCH  12  13
ENDBRANCH   1  12
TORSDOF 0
