REMARK SMILES COc1cc(-c2oc3c(OC)c(OC)cc(OC)c3c(=O)c2OC)cc(OC)c1OC
REMARK SMILES IDX 6 1 22 2 20 3 21 4 19 5 16 6 15 7 12 8 9 9 8 10 7 11 5 12
REMARK SMILES IDX 3 13 4 14 29 15 26 16 25 17 2 18 1 19 30 20 31 21 27 22
REMARK SMILES IDX 28 23 23 24 24 25 10 26 11 27 17 28 18 29 13 30 14 31
REMARK H PARENT
ROOT
ATOM      1  C   UNL     1      -0.330  -0.450   0.000  1.00  0.00     0.181 A 
ATOM      2  C   UNL     1       0.171  -1.864   0.000  1.00  0.00     0.210 A 
ATOM      3  C   UNL     1       1.646  -2.138   0.000  1.00  0.00     0.239 A 
ATOM      4  O   UNL     1       2.147  -3.552   0.000  1.00  0.00    -0.285 OA
ATOM      5  C   UNL     1       2.620  -0.997   0.000  1.00  0.00     0.115 A 
ATOM      6  C   UNL     1       4.095  -1.270   0.000  1.00  0.00     0.137 A 
ATOM      7  C   UNL     1       5.069  -0.130   0.000  1.00  0.00     0.097 A 
ATOM      8  C   UNL     1       4.569   1.284   0.000  1.00  0.00     0.168 A 
ATOM      9  C   UNL     1       3.094   1.557   0.000  1.00  0.00     0.205 A 
ATOM     10  C   UNL     1       2.119   0.417   0.000  1.00  0.00     0.188 A 
ATOM     11  O   UNL     1       0.645   0.690   0.000  1.00  0.00    -0.448 OA
ENDROOT
BRANCH   1  12
ATOM     12  C   UNL     1      -1.804  -0.177   0.000  1.00  0.00     0.029 A 
ATOM     13  C   UNL     1      -3.780   1.510   0.000  1.00  0.00     0.165 A 
ATOM     14  C   UNL     1      -2.305   1.237   0.000  1.00  0.00     0.062 A 
ATOM     15  C   UNL     1      -4.754   0.370   0.000  1.00  0.00     0.203 A 
ATOM     16  C   UNL     1      -4.253  -1.044   0.000  1.00  0.00     0.165 A 
ATOM     17  C   UNL     1      -2.779  -1.317   0.000  1.00  0.00     0.062 A 
BRANCH  13  18
ATOM     18  O   UNL     1      -4.281   2.924   0.000  1.00  0.00    -0.493 OA
ATOM     19  C   UNL     1      -3.306   4.065   0.000  1.00  0.00     0.278 C 
ENDBRANCH  13  18
BRANCH  15  20
ATOM     20  O   UNL     1      -6.229   0.643   0.000  1.00  0.00    -0.490 OA
ATOM     21  C   UNL     1      -6.730   2.057   0.000  1.00  0.00     0.278 C 
ENDBRANCH  15  20
BRANCH  16  22
ATOM     22  O   UNL     1      -5.228  -2.185   0.000  1.00  0.00    -0.493 OA
ATOM     23  C   UNL     1      -6.703  -1.911   0.000  1.00  0.00     0.278 C 
ENDBRANCH  16  22
ENDBRANCH   1  12
BRANCH   2  24
ATOM     24  O   UNL     1      -0.803  -3.005   0.000  1.00  0.00    -0.490 OA
ATOM     25  C   UNL     1      -2.278  -2.732   0.000  1.00  0.00     0.278 C 
ENDBRANCH   2  24
BRANCH   9  26
ATOM     26  O   UNL     1       2.593   2.971   0.000  1.00  0.00    -0.490 OA
ATOM     27  C   UNL     1       3.567   4.112   0.000  1.00  0.00     0.278 C 
ENDBRANCH   9  26
BRANCH   6  28
ATOM     28  O   UNL     1       4.596  -2.684   0.000  1.00  0.00    -0.496 OA
ATOM     29  C   UNL     1       6.071  -2.958   0.000  1.00  0.00     0.278 C 
ENDBRANCH   6  28
BRANCH   8  30
ATOM     30  O   UNL     1       5.543   2.425   0.000  1.00  0.00    -0.493 OA
ATOM     31  C   UNL     1       7.018   2.151   0.000  1.00  0.00     0.278 C 
ENDBRANCH   8  30
TORSDOF 8
