REMARK SMILES O=C(/C=C/c1ccc(O)c(O)c1)O[C@@H]1[C@@H](O)[C@H](O)[C@@H](CO)O[C@H]1c1c(O)cc2oc3cc(O)c(O)cc3c(=O)c2c1O
REMARK SMILES IDX 1 1 2 2 3 3 4 4 5 5 6 6 12 7 7 8 10 9 8 10 11 11 9 13 13 15
REMARK SMILES IDX 14 16 15 17 23 18 17 19 22 20 19 21 16 22 24 24 25 25 41 26
REMARK SMILES IDX 27 27 40 28 28 29 38 30 29 31 37 32 30 33 36 34 31 35 34 36
REMARK SMILES IDX 32 37 39 38 26 39 42 41 35 43 33 45 18 47 20 49 21 50
REMARK H PARENT 11 12 9 14 16 23 26 40 42 42 35 44 33 46 18 48 21 51
ROOT
ATOM      1  O   UNL     1      -0.661   4.205   0.000  1.00  0.00    -0.247 OA
ATOM      2  C   UNL     1      -0.121   2.805   0.000  1.00  0.00     0.331 C 
ENDROOT
BRANCH   2   3
ATOM      3  C   UNL     1       1.361   2.573   0.000  1.00  0.00     0.094 C 
BRANCH   3   4
ATOM      4  C   UNL     1       2.303   3.740   0.000  1.00  0.00     0.016 C 
BRANCH   4   5
ATOM      5  C   UNL     1       3.785   3.508   0.000  1.00  0.00    -0.021 A 
ATOM      6  C   UNL     1       4.325   2.109   0.000  1.00  0.00     0.012 A 
ATOM      7  C   UNL     1       4.727   4.676   0.000  1.00  0.00     0.058 A 
ATOM      8  C   UNL     1       5.807   1.877   0.000  1.00  0.00     0.051 A 
ATOM      9  C   UNL     1       6.209   4.444   0.000  1.00  0.00     0.157 A 
ATOM     10  C   UNL     1       6.749   3.044   0.000  1.00  0.00     0.157 A 
BRANCH   9  11
ATOM     11  O   UNL     1       7.151   5.611   0.000  1.00  0.00    -0.504 OA
ATOM     12  H   UNL     1       0.000   0.000   0.000  1.00  0.00     0.293 HD
ENDBRANCH   9  11
BRANCH  10  13
ATOM     13  O   UNL     1       8.231   2.812   0.000  1.00  0.00    -0.504 OA
ATOM     14  H   UNL     1       0.000   0.000   0.000  1.00  0.00     0.293 HD
ENDBRANCH  10  13
ENDBRANCH   4   5
ENDBRANCH   3   4
ENDBRANCH   2   3
BRANCH   2  15
ATOM     15  O   UNL     1      -1.063   1.638   0.000  1.00  0.00    -0.453 OA
BRANCH  15  16
ATOM     16  C   UNL     1      -2.545   1.870   0.000  1.00  0.00     0.242 C 
ATOM     17  C   UNL     1      -3.085   3.269   0.000  1.00  0.00     0.189 C 
ATOM     18  C   UNL     1      -3.487   0.703   0.000  1.00  0.00     0.200 C 
ATOM     19  C   UNL     1      -4.567   3.502   0.000  1.00  0.00     0.178 C 
ATOM     20  O   UNL     1      -4.969   0.935   0.000  1.00  0.00    -0.361 OA
ATOM     21  C   UNL     1      -5.509   2.334   0.000  1.00  0.00     0.176 C 
BRANCH  17  22
ATOM     22  O   UNL     1      -2.143   4.437   0.000  1.00  0.00    -0.386 OA
ATOM     23  H   UNL     1       0.000   0.000   0.000  1.00  0.00     0.211 HD
ENDBRANCH  17  22
BRANCH  18  24
ATOM     24  C   UNL     1      -2.947  -0.697   0.000  1.00  0.00     0.069 A 
ATOM     25  C   UNL     1      -3.889  -1.864   0.000  1.00  0.00     0.129 A 
ATOM     26  C   UNL     1      -1.465  -0.929   0.000  1.00  0.00     0.140 A 
ATOM     27  C   UNL     1      -3.349  -3.264   0.000  1.00  0.00     0.094 A 
ATOM     28  C   UNL     1      -0.925  -2.328   0.000  1.00  0.00     0.108 A 
ATOM     29  C   UNL     1      -1.867  -3.496   0.000  1.00  0.00     0.146 A 
ATOM     30  C   UNL     1       0.557  -2.560   0.000  1.00  0.00     0.204 A 
ATOM     31  O   UNL     1      -1.327  -4.895   0.000  1.00  0.00    -0.455 OA
ATOM     32  C   UNL     1       1.097  -3.960   0.000  1.00  0.00     0.069 A 
ATOM     33  C   UNL     1       0.155  -5.127   0.000  1.00  0.00     0.142 A 
ATOM     34  C   UNL     1       2.579  -4.192   0.000  1.00  0.00     0.066 A 
ATOM     35  C   UNL     1       0.695  -6.527   0.000  1.00  0.00     0.098 A 
ATOM     36  C   UNL     1       3.119  -5.591   0.000  1.00  0.00     0.158 A 
ATOM     37  C   UNL     1       2.177  -6.759   0.000  1.00  0.00     0.161 A 
ATOM     38  O   UNL     1       1.499  -1.393   0.000  1.00  0.00    -0.288 OA
BRANCH  25  39
ATOM     39  O   UNL     1      -5.371  -1.632   0.000  1.00  0.00    -0.507 OA
ATOM     40  H   UNL     1       0.000   0.000   0.000  1.00  0.00     0.293 HD
ENDBRANCH  25  39
BRANCH  26  41
ATOM     41  O   UNL     1      -0.523   0.238   0.000  1.00  0.00    -0.506 OA
ATOM     42  H   UNL     1       0.000   0.000   0.000  1.00  0.00     0.293 HD
ENDBRANCH  26  41
BRANCH  36  43
ATOM     43  O   UNL     1       4.601  -5.824   0.000  1.00  0.00    -0.504 OA
ATOM     44  H   UNL     1       0.000   0.000   0.000  1.00  0.00     0.293 HD
ENDBRANCH  36  43
BRANCH  37  45
ATOM     45  O   UNL     1       2.717  -8.158   0.000  1.00  0.00    -0.504 OA
ATOM     46  H   UNL     1       0.000   0.000   0.000  1.00  0.00     0.293 HD
ENDBRANCH  37  45
ENDBRANCH  18  24
BRANCH  19  47
ATOM     47  O   UNL     1      -5.107   4.901   0.000  1.00  0.00    -0.387 OA
ATOM     48  H   UNL     1       0.000   0.000   0.000  1.00  0.00     0.211 HD
ENDBRANCH  19  47
BRANCH  21  49
ATOM     49  C   UNL     1      -6.991   2.566   0.000  1.00  0.00     0.191 C 
BRANCH  49  50
ATOM     50  O   UNL     1      -7.933   1.399   0.000  1.00  0.00    -0.394 OA
ATOM     51  H   UNL     1       0.000   0.000   0.000  1.00  0.00     0.210 HD
ENDBRANCH  49  50
ENDBRANCH  21  49
ENDBRANCH  15  16
ENDBRANCH   2  15
TORSDOF 16
