REMARK SMILES C=C1CC[C@@H]2[C@H]1[C@H]1[C@H](C(C)C)CC[C@]12C
REMARK SMILES IDX 1 1 2 2 3 3 4 4 5 5 6 6 7 7 8 8 12 9 13 10 14 11 15 12 9 13
REMARK SMILES IDX 10 14 11 15
REMARK H PARENT
ROOT
ATOM      1  C   UNL     1       2.103  -2.981   0.000  1.00  0.00     0.008 C 
ATOM      2  C   UNL     1       2.201  -1.484   0.000  1.00  0.00    -0.074 C 
ATOM      3  C   UNL     1       3.469  -0.683   0.000  1.00  0.00     0.031 C 
ATOM      4  C   UNL     1       3.100   0.771   0.000  1.00  0.00     0.009 C 
ATOM      5  C   UNL     1       1.603   0.868   0.000  1.00  0.00     0.003 C 
ATOM      6  C   UNL     1       1.047  -0.525   0.000  1.00  0.00     0.022 C 
ATOM      7  C   UNL     1      -0.346   0.031   0.000  1.00  0.00     0.006 C 
ATOM      8  C   UNL     1      -1.843   0.129   0.000  1.00  0.00    -0.004 C 
ATOM      9  C   UNL     1      -2.212   1.582   0.000  1.00  0.00     0.005 C 
ATOM     10  C   UNL     1      -0.944   2.383   0.000  1.00  0.00     0.007 C 
ATOM     11  C   UNL     1       0.210   1.424   0.000  1.00  0.00    -0.025 C 
ATOM     12  C   UNL     1       0.976   2.713   0.000  1.00  0.00     0.012 C 
ENDROOT
BRANCH   8  13
ATOM     13  C   UNL     1      -2.802  -1.025   0.000  1.00  0.00    -0.014 C 
ATOM     14  C   UNL     1      -4.280  -0.771   0.000  1.00  0.00     0.007 C 
ATOM     15  C   UNL     1      -2.282  -2.432   0.000  1.00  0.00     0.007 C 
ENDBRANCH   8  13
TORSDOF 1
