REMARK SMILES CC(C)[C@H](C)/C=C/[C@@H](C)[C@H]1CCC2=C3C=CC4=CC(=O)CC[C@]4(C)[C@H]3CC[C@@]21C
REMARK SMILES IDX 6 1 4 2 5 3 2 4 1 5 3 6 7 7 8 8 9 9 10 10 11 11 28 12 12 13
REMARK SMILES IDX 27 14 13 15 26 16 14 17 25 18 15 19 23 20 16 21 22 22 17 23
REMARK SMILES IDX 21 24 18 25 19 26 29 27 24 28 20 29
REMARK H PARENT
ROOT
ATOM      1  C   UNL     1      -5.223   0.229   0.000  1.00  0.00    -0.028 C 
ENDROOT
BRANCH   1   2
ATOM      2  C   UNL     1      -5.524   1.699   0.000  1.00  0.00     0.011 C 
ATOM      3  C   UNL     1      -6.947   2.172   0.000  1.00  0.00     0.012 C 
BRANCH   2   4
ATOM      4  C   UNL     1      -4.402   2.694   0.000  1.00  0.00    -0.011 C 
ATOM      5  C   UNL     1      -4.703   4.163   0.000  1.00  0.00     0.008 C 
ATOM      6  C   UNL     1      -2.979   2.220   0.000  1.00  0.00     0.008 C 
ENDBRANCH   2   4
ENDBRANCH   1   2
BRANCH   1   7
ATOM      7  C   UNL     1      -3.800  -0.245   0.000  1.00  0.00    -0.028 C 
BRANCH   7   8
ATOM      8  C   UNL     1      -3.499  -1.714   0.000  1.00  0.00     0.012 C 
ATOM      9  C   UNL     1      -4.621  -2.710   0.000  1.00  0.00     0.012 C 
BRANCH   8  10
ATOM     10  C   UNL     1      -2.076  -2.188   0.000  1.00  0.00     0.006 C 
ATOM     11  C   UNL     1      -1.623  -3.618   0.000  1.00  0.00     0.009 C 
ATOM     12  C   UNL     1      -0.856  -1.315   0.000  1.00  0.00    -0.008 C 
ATOM     13  C   UNL     1      -0.123  -3.629   0.000  1.00  0.00     0.032 C 
ATOM     14  C   UNL     1      -0.688   0.175   0.000  1.00  0.00     0.012 C 
ATOM     15  C   UNL     1       0.351  -2.206   0.000  1.00  0.00    -0.060 C 
ATOM     16  C   UNL     1       0.687   0.775   0.000  1.00  0.00     0.010 C 
ATOM     17  C   UNL     1       1.726  -1.606   0.000  1.00  0.00    -0.044 C 
ATOM     18  C   UNL     1       1.894  -0.115   0.000  1.00  0.00     0.029 C 
ATOM     19  C   UNL     1       2.933  -2.497   0.000  1.00  0.00     0.004 C 
ATOM     20  C   UNL     1       3.268   0.485   0.000  1.00  0.00    -0.000 C 
ATOM     21  C   UNL     1       4.308  -1.897   0.000  1.00  0.00     0.005 C 
ATOM     22  C   UNL     1       3.436   1.975   0.000  1.00  0.00     0.020 C 
ATOM     23  C   UNL     1       4.476  -0.406   0.000  1.00  0.00    -0.038 C 
ATOM     24  C   UNL     1       4.811   2.575   0.000  1.00  0.00     0.081 C 
ATOM     25  C   UNL     1       5.850   0.194   0.000  1.00  0.00     0.051 C 
ATOM     26  C   UNL     1       6.018   1.685   0.000  1.00  0.00     0.156 C 
ATOM     27  C   UNL     1      -2.149  -0.556   0.000  1.00  0.00     0.016 C 
ATOM     28  C   UNL     1       2.062   1.375   0.000  1.00  0.00     0.017 C 
ATOM     29  O   UNL     1       7.393   2.285   0.000  1.00  0.00    -0.295 OA
ENDBRANCH   8  10
ENDBRANCH   7   8
ENDBRANCH   1   7
TORSDOF 5
