REMARK SMILES COc1c2c(cc3ccc(=O)oc13)C=CC(C)(C)O2
REMARK SMILES IDX 3 1 4 2 19 3 16 4 17 5 18 6 15 7 14 8 5 9 6 10 7 11 13 12
REMARK SMILES IDX 12 13 10 14 11 15 9 16 8 17 2 18 1 19
REMARK H PARENT
ROOT
ATOM      1  C   UNL     1      -0.190  -0.923   0.000  1.00  0.00     0.205 A 
ATOM      2  C   UNL     1       1.122  -0.197   0.000  1.00  0.00     0.173 A 
ATOM      3  O   UNL     1       2.407  -0.971   0.000  1.00  0.00    -0.479 OA
ATOM      4  C   UNL     1       3.720  -0.245   0.000  1.00  0.00     0.122 C 
ATOM      5  C   UNL     1       5.202  -0.013   0.000  1.00  0.00     0.061 C 
ATOM      6  C   UNL     1       4.207  -1.664   0.000  1.00  0.00     0.061 C 
ATOM      7  C   UNL     1       3.748   1.254   0.000  1.00  0.00     0.021 C 
ATOM      8  C   UNL     1       2.463   2.028   0.000  1.00  0.00     0.012 C 
ATOM      9  C   UNL     1       1.150   1.302   0.000  1.00  0.00     0.021 A 
ATOM     10  C   UNL     1      -0.135   2.076   0.000  1.00  0.00     0.024 A 
ATOM     11  C   UNL     1      -1.447   1.351   0.000  1.00  0.00     0.022 A 
ATOM     12  C   UNL     1      -1.475  -0.149   0.000  1.00  0.00     0.184 A 
ATOM     13  O   UNL     1      -2.788  -0.875   0.000  1.00  0.00    -0.419 OA
ATOM     14  C   UNL     1      -4.073  -0.101   0.000  1.00  0.00     0.336 A 
ATOM     15  O   UNL     1      -5.386  -0.826   0.000  1.00  0.00    -0.246 OA
ATOM     16  C   UNL     1      -4.045   1.399   0.000  1.00  0.00     0.094 A 
ATOM     17  C   UNL     1      -2.732   2.125   0.000  1.00  0.00     0.019 A 
ENDROOT
BRANCH   1  18
ATOM     18  O   UNL     1      -0.218  -2.423   0.000  1.00  0.00    -0.490 OA
ATOM     19  C   UNL     1      -1.531  -3.148   0.000  1.00  0.00     0.278 C 
ENDBRANCH   1  18
TORSDOF 1
