REMARK SMILES COc1c(OC)c2c3c(nccc3c1OC)C(=O)c1ccccc1-2
REMARK SMILES IDX 3 1 4 2 7 3 8 4 9 5 10 6 11 7 12 8 13 9 14 10 17 11 18 12
REMARK SMILES IDX 19 13 20 14 21 15 22 16 23 17 24 18 2 19 1 20 5 21 6 22
REMARK SMILES IDX 15 23 16 24
REMARK H PARENT
ROOT
ATOM      1  C   UNL     1      -2.331   0.617   0.000  1.00  0.00     0.204 A 
ATOM      2  C   UNL     1      -0.962   1.230   0.000  1.00  0.00     0.173 A 
ATOM      3  C   UNL     1       0.254   0.351   0.000  1.00  0.00     0.039 A 
ATOM      4  C   UNL     1       0.100  -1.141   0.000  1.00  0.00     0.027 A 
ATOM      5  C   UNL     1       1.316  -2.020   0.000  1.00  0.00     0.120 A 
ATOM      6  N   UNL     1       1.162  -3.512   0.000  1.00  0.00    -0.252 NA
ATOM      7  C   UNL     1      -0.207  -4.125   0.000  1.00  0.00     0.112 A 
ATOM      8  C   UNL     1      -1.422  -3.247   0.000  1.00  0.00     0.033 A 
ATOM      9  C   UNL     1      -1.269  -1.754   0.000  1.00  0.00     0.032 A 
ATOM     10  C   UNL     1      -2.484  -0.875   0.000  1.00  0.00     0.172 A 
ATOM     11  C   UNL     1       2.685  -1.407   0.000  1.00  0.00     0.212 C 
ATOM     12  O   UNL     1       3.900  -2.286   0.000  1.00  0.00    -0.287 OA
ATOM     13  C   UNL     1       2.838   0.085   0.000  1.00  0.00     0.032 A 
ATOM     14  C   UNL     1       4.207   0.698   0.000  1.00  0.00     0.013 A 
ATOM     15  C   UNL     1       4.361   2.191   0.000  1.00  0.00     0.001 A 
ATOM     16  C   UNL     1       3.145   3.069   0.000  1.00  0.00     0.001 A 
ATOM     17  C   UNL     1       1.776   2.456   0.000  1.00  0.00     0.009 A 
ATOM     18  C   UNL     1       1.623   0.964   0.000  1.00  0.00    -0.003 A 
ENDROOT
BRANCH   1  19
ATOM     19  O   UNL     1      -3.546   1.496   0.000  1.00  0.00    -0.490 OA
ATOM     20  C   UNL     1      -3.393   2.988   0.000  1.00  0.00     0.278 C 
ENDBRANCH   1  19
BRANCH   2  21
ATOM     21  O   UNL     1      -0.808   2.722   0.000  1.00  0.00    -0.492 OA
ATOM     22  C   UNL     1      -2.024   3.601   0.000  1.00  0.00     0.278 C 
ENDBRANCH   2  21
BRANCH  10  23
ATOM     23  O   UNL     1      -3.853  -1.489   0.000  1.00  0.00    -0.492 OA
ATOM     24  C   UNL     1      -5.069  -0.610   0.000  1.00  0.00     0.278 C 
ENDBRANCH  10  23
TORSDOF 3
