REMARK SMILES CC(=O)O[C@H]1[C@H](OC(C)=O)[C@H]2C(C)(C)CCC[C@]2(C)[C@H]2Cc3occc3[C@H](C)[C@H]12
REMARK SMILES IDX 5 1 6 2 11 3 12 4 13 5 14 6 15 7 16 8 17 9 18 10 19 11 20 12
REMARK SMILES IDX 21 13 22 14 26 15 25 16 24 17 23 18 27 19 28 20 29 21 4 22
REMARK SMILES IDX 2 23 1 24 3 25 7 26 8 27 9 28 10 29
REMARK H PARENT
ROOT
ATOM      1  C   UNL     1      -0.005  -1.305   0.000  1.00  0.00     0.221 C 
ATOM      2  C   UNL     1       1.282  -0.535   0.000  1.00  0.00     0.221 C 
ATOM      3  C   UNL     1       1.259   0.964   0.000  1.00  0.00     0.046 C 
ATOM      4  C   UNL     1       2.547   1.734   0.000  1.00  0.00    -0.028 C 
ATOM      5  C   UNL     1       4.020   2.018   0.000  1.00  0.00     0.011 C 
ATOM      6  C   UNL     1       3.081   0.333   0.000  1.00  0.00     0.011 C 
ATOM      7  C   UNL     1       2.523   3.234   0.000  1.00  0.00     0.007 C 
ATOM      8  C   UNL     1       1.213   3.964   0.000  1.00  0.00     0.001 C 
ATOM      9  C   UNL     1      -0.074   3.194   0.000  1.00  0.00     0.007 C 
ATOM     10  C   UNL     1      -0.051   1.694   0.000  1.00  0.00    -0.022 C 
ATOM     11  C   UNL     1      -1.362   2.424   0.000  1.00  0.00     0.012 C 
ATOM     12  C   UNL     1      -1.339   0.924   0.000  1.00  0.00     0.010 C 
ATOM     13  C   UNL     1      -2.649   1.654   0.000  1.00  0.00     0.080 C 
ATOM     14  C   UNL     1      -3.936   0.884   0.000  1.00  0.00     0.107 A 
ATOM     15  C   UNL     1      -3.913  -0.616   0.000  1.00  0.00    -0.003 A 
ATOM     16  C   UNL     1      -5.332  -1.101   0.000  1.00  0.00     0.046 A 
ATOM     17  C   UNL     1      -6.233   0.099   0.000  1.00  0.00     0.195 A 
ATOM     18  O   UNL     1      -5.370   1.326   0.000  1.00  0.00    -0.469 OA
ATOM     19  C   UNL     1      -2.603  -1.345   0.000  1.00  0.00     0.027 C 
ATOM     20  C   UNL     1      -2.579  -2.845   0.000  1.00  0.00     0.013 C 
ATOM     21  C   UNL     1      -1.315  -0.576   0.000  1.00  0.00     0.045 C 
ENDROOT
BRANCH   1  22
ATOM     22  O   UNL     1       0.018  -2.805   0.000  1.00  0.00    -0.458 OA
BRANCH  22  23
ATOM     23  C   UNL     1       1.329  -3.535   0.000  1.00  0.00     0.303 C 
ATOM     24  C   UNL     1       1.352  -5.035   0.000  1.00  0.00     0.139 C 
ATOM     25  O   UNL     1       2.616  -2.765   0.000  1.00  0.00    -0.253 OA
ENDBRANCH  22  23
ENDBRANCH   1  22
BRANCH   2  26
ATOM     26  O   UNL     1       2.593  -1.265   0.000  1.00  0.00    -0.458 OA
BRANCH  26  27
ATOM     27  C   UNL     1       3.880  -0.495   0.000  1.00  0.00     0.303 C 
ATOM     28  C   UNL     1       5.191  -1.225   0.000  1.00  0.00     0.139 C 
ATOM     29  O   UNL     1       3.857   1.004   0.000  1.00  0.00    -0.253 OA
ENDBRANCH  26  27
ENDBRANCH   2  26
TORSDOF 4
