REMARK SMILES COc1cc2c(cc1OC)-c1c(oc3cc4c(c(O)c3c1=O)C=CC(C)(C)O4)CO2
REMARK SMILES IDX 3 1 4 2 5 3 6 4 7 5 8 6 11 7 12 8 29 9 30 10 13 11 14 12
REMARK SMILES IDX 15 13 16 14 17 15 23 16 24 17 25 18 26 19 27 20 28 21 18 22
REMARK SMILES IDX 20 23 21 24 22 25 2 26 1 27 9 28 10 29 19 30
REMARK H PARENT 19 31
ROOT
ATOM      1  C   UNL     1      -5.554  -0.233   0.000  1.00  0.00     0.164 A 
ATOM      2  C   UNL     1      -5.097   1.196   0.000  1.00  0.00     0.097 A 
ATOM      3  C   UNL     1      -3.631   1.514   0.000  1.00  0.00     0.132 A 
ATOM      4  C   UNL     1      -2.623   0.405   0.000  1.00  0.00     0.035 A 
ATOM      5  C   UNL     1      -3.079  -1.024   0.000  1.00  0.00     0.063 A 
ATOM      6  C   UNL     1      -4.545  -1.343   0.000  1.00  0.00     0.161 A 
ATOM      7  C   UNL     1      -1.157   0.723   0.000  1.00  0.00     0.076 A 
ATOM      8  C   UNL     1      -0.700   2.152   0.000  1.00  0.00     0.153 A 
ATOM      9  C   UNL     1      -1.709   3.262   0.000  1.00  0.00     0.305 C 
ATOM     10  O   UNL     1      -3.175   2.943   0.000  1.00  0.00    -0.485 OA
ATOM     11  O   UNL     1       0.766   2.471   0.000  1.00  0.00    -0.456 OA
ATOM     12  C   UNL     1       1.775   1.361   0.000  1.00  0.00     0.145 A 
ATOM     13  C   UNL     1       3.240   1.680   0.000  1.00  0.00     0.095 A 
ATOM     14  C   UNL     1       4.249   0.570   0.000  1.00  0.00     0.135 A 
ATOM     15  C   UNL     1       3.793  -0.859   0.000  1.00  0.00     0.059 A 
ATOM     16  C   UNL     1       4.801  -1.969   0.000  1.00  0.00     0.015 C 
ATOM     17  C   UNL     1       6.267  -1.650   0.000  1.00  0.00     0.021 C 
ATOM     18  C   UNL     1       6.724  -0.222   0.000  1.00  0.00     0.122 C 
ATOM     19  C   UNL     1       7.642   0.965   0.000  1.00  0.00     0.061 C 
ATOM     20  C   UNL     1       8.052  -0.919   0.000  1.00  0.00     0.061 C 
ATOM     21  O   UNL     1       5.715   0.888   0.000  1.00  0.00    -0.483 OA
ATOM     22  C   UNL     1       2.327  -1.178   0.000  1.00  0.00     0.141 A 
ATOM     23  C   UNL     1       1.318  -0.068   0.000  1.00  0.00     0.108 A 
ATOM     24  C   UNL     1      -0.148  -0.387   0.000  1.00  0.00     0.204 A 
ATOM     25  O   UNL     1      -0.605  -1.815   0.000  1.00  0.00    -0.288 OA
ENDROOT
BRANCH   1  26
ATOM     26  O   UNL     1      -7.020  -0.552   0.000  1.00  0.00    -0.493 OA
ATOM     27  C   UNL     1      -8.029   0.558   0.000  1.00  0.00     0.278 C 
ENDBRANCH   1  26
BRANCH   6  28
ATOM     28  O   UNL     1      -5.002  -2.772   0.000  1.00  0.00    -0.493 OA
ATOM     29  C   UNL     1      -6.468  -3.091   0.000  1.00  0.00     0.278 C 
ENDBRANCH   6  28
BRANCH  22  30
ATOM     30  O   UNL     1       1.870  -2.607   0.000  1.00  0.00    -0.506 OA
ATOM     31  H   UNL     1       0.000   0.000   0.000  1.00  0.00     0.293 HD
ENDBRANCH  22  30
TORSDOF 3
