REMARK SMILES COc1ccc2c(c1)O[C@@H]1c3ccc(O)cc3OC[C@H]21
REMARK SMILES IDX 3 1 4 2 5 3 6 4 7 5 8 6 9 7 10 8 11 9 12 10 13 11 14 12
REMARK SMILES IDX 16 13 17 14 18 15 19 16 20 17 2 18 1 19 15 20
REMARK H PARENT 15 21
ROOT
ATOM      1  C   UNL     1      -4.386  -0.487   0.000  1.00  0.00     0.122 A 
ATOM      2  C   UNL     1      -4.199   1.002   0.000  1.00  0.00     0.047 A 
ATOM      3  C   UNL     1      -2.817   1.584   0.000  1.00  0.00     0.012 A 
ATOM      4  C   UNL     1      -1.621   0.678   0.000  1.00  0.00     0.005 A 
ATOM      5  C   UNL     1      -1.808  -0.810   0.000  1.00  0.00     0.127 A 
ATOM      6  C   UNL     1      -3.191  -1.393   0.000  1.00  0.00     0.093 A 
ATOM      7  O   UNL     1      -0.451  -1.448   0.000  1.00  0.00    -0.484 OA
ATOM      8  C   UNL     1       0.575  -0.354   0.000  1.00  0.00     0.218 C 
ATOM      9  C   UNL     1       2.075  -0.384   0.000  1.00  0.00     0.035 A 
ATOM     10  C   UNL     1       2.799  -1.698   0.000  1.00  0.00     0.015 A 
ATOM     11  C   UNL     1       4.298  -1.728   0.000  1.00  0.00     0.047 A 
ATOM     12  C   UNL     1       5.074  -0.444   0.000  1.00  0.00     0.119 A 
ATOM     13  C   UNL     1       4.351   0.870   0.000  1.00  0.00     0.093 A 
ATOM     14  C   UNL     1       2.851   0.900   0.000  1.00  0.00     0.129 A 
ATOM     15  O   UNL     1       2.127   2.214   0.000  1.00  0.00    -0.492 OA
ATOM     16  C   UNL     1       0.628   2.244   0.000  1.00  0.00     0.242 C 
ATOM     17  C   UNL     1      -0.148   0.960   0.000  1.00  0.00     0.106 C 
ENDROOT
BRANCH   1  18
ATOM     18  O   UNL     1      -5.769  -1.069   0.000  1.00  0.00    -0.497 OA
ATOM     19  C   UNL     1      -6.964  -0.163   0.000  1.00  0.00     0.278 C 
ENDBRANCH   1  18
BRANCH  12  20
ATOM     20  O   UNL     1       6.574  -0.475   0.000  1.00  0.00    -0.508 OA
ATOM     21  H   UNL     1       0.000   0.000   0.000  1.00  0.00     0.293 HD
ENDBRANCH  12  20
TORSDOF 2
