REMARK SMILES CNc1c(C(=O)c2cc(OC)c(OC)c(OC)c2O)ccc(O)c1O
REMARK SMILES IDX 5 1 6 2 4 3 3 4 24 5 20 6 22 7 21 8 2 9 1 10 25 12 23 14
REMARK SMILES IDX 7 16 8 17 18 18 9 19 15 20 12 21 19 22 10 24 11 25 16 26
REMARK SMILES IDX 17 27 13 28 14 29
REMARK H PARENT 2 11 25 13 23 15 19 23
ROOT
ATOM      1  C   UNL     1       0.576  -1.058   0.000  1.00  0.00     0.199 C 
ATOM      2  O   UNL     1       0.726  -2.550   0.000  1.00  0.00    -0.288 OA
ENDROOT
BRANCH   1   3
ATOM      3  C   UNL     1       1.794  -0.182   0.000  1.00  0.00     0.050 A 
ATOM      4  C   UNL     1       3.161  -0.799   0.000  1.00  0.00     0.092 A 
ATOM      5  C   UNL     1       4.379   0.077   0.000  1.00  0.00     0.181 A 
ATOM      6  C   UNL     1       1.644   1.310   0.000  1.00  0.00     0.018 A 
ATOM      7  C   UNL     1       4.229   1.569   0.000  1.00  0.00     0.159 A 
ATOM      8  C   UNL     1       2.862   2.186   0.000  1.00  0.00     0.051 A 
BRANCH   4   9
ATOM      9  N   UNL     1       3.311  -2.291   0.000  1.00  0.00    -0.384 N 
ATOM     10  C   UNL     1       4.678  -2.908   0.000  1.00  0.00     0.140 C 
ATOM     11  H   UNL     1       0.000   0.000   0.000  1.00  0.00     0.160 HD
ENDBRANCH   4   9
BRANCH   5  12
ATOM     12  O   UNL     1       5.746  -0.540   0.000  1.00  0.00    -0.503 OA
ATOM     13  H   UNL     1       0.000   0.000   0.000  1.00  0.00     0.293 HD
ENDBRANCH   5  12
BRANCH   7  14
ATOM     14  O   UNL     1       5.447   2.445   0.000  1.00  0.00    -0.504 OA
ATOM     15  H   UNL     1       0.000   0.000   0.000  1.00  0.00     0.293 HD
ENDBRANCH   7  14
ENDBRANCH   1   3
BRANCH   1  16
ATOM     16  C   UNL     1      -0.791  -0.441   0.000  1.00  0.00     0.072 A 
ATOM     17  C   UNL     1      -0.941   1.051   0.000  1.00  0.00     0.066 A 
ATOM     18  C   UNL     1      -2.009  -1.317   0.000  1.00  0.00     0.173 A 
ATOM     19  C   UNL     1      -2.308   1.668   0.000  1.00  0.00     0.165 A 
ATOM     20  C   UNL     1      -3.377  -0.700   0.000  1.00  0.00     0.207 A 
ATOM     21  C   UNL     1      -3.526   0.792   0.000  1.00  0.00     0.207 A 
BRANCH  18  22
ATOM     22  O   UNL     1      -1.860  -2.809   0.000  1.00  0.00    -0.504 OA
ATOM     23  H   UNL     1       0.000   0.000   0.000  1.00  0.00     0.293 HD
ENDBRANCH  18  22
BRANCH  19  24
ATOM     24  O   UNL     1      -2.458   3.161   0.000  1.00  0.00    -0.493 OA
ATOM     25  C   UNL     1      -1.240   4.037   0.000  1.00  0.00     0.278 C 
ENDBRANCH  19  24
BRANCH  20  26
ATOM     26  O   UNL     1      -4.594  -1.576   0.000  1.00  0.00    -0.490 OA
ATOM     27  C   UNL     1      -4.445  -3.068   0.000  1.00  0.00     0.278 C 
ENDBRANCH  20  26
BRANCH  21  28
ATOM     28  O   UNL     1      -4.893   1.409   0.000  1.00  0.00    -0.490 OA
ATOM     29  C   UNL     1      -6.111   0.533   0.000  1.00  0.00     0.278 C 
ENDBRANCH  21  28
ENDBRANCH   1  16
TORSDOF 9
