REMARK SMILES COc1cc2c(cc1OC)[C@]13C[C@@H](OC)C=CC1=CC[N@+]3([O-])C[C@@H]2OC
REMARK SMILES IDX 3 1 4 2 5 3 6 4 7 5 8 6 11 7 12 8 13 9 16 10 17 11 18 12
REMARK SMILES IDX 19 13 20 14 21 15 22 16 23 17 24 18 2 19 1 20 9 21 10 22
REMARK SMILES IDX 25 23 26 24 14 25 15 26
REMARK H PARENT
ROOT
ATOM      1  C   UNL     1       2.372  -1.133   0.000  1.00  0.00     0.161 A 
ATOM      2  C   UNL     1       1.118  -1.956   0.000  1.00  0.00     0.057 A 
ATOM      3  C   UNL     1      -0.222  -1.282   0.000  1.00  0.00     0.000 A 
ATOM      4  C   UNL     1      -0.308   0.216   0.000  1.00  0.00     0.028 A 
ATOM      5  C   UNL     1       0.946   1.039   0.000  1.00  0.00     0.061 A 
ATOM      6  C   UNL     1       2.286   0.365   0.000  1.00  0.00     0.161 A 
ATOM      7  C   UNL     1      -1.648   0.890   0.000  1.00  0.00     0.154 C 
ATOM      8  C   UNL     1      -0.382   1.184   0.000  1.00  0.00     0.116 C 
ATOM      9  C   UNL     1       0.181   1.753   0.000  1.00  0.00     0.147 C 
ATOM     10  C   UNL     1      -0.030   2.524   0.000  1.00  0.00     0.005 C 
ATOM     11  C   UNL     1      -0.803   2.728   0.000  1.00  0.00     0.009 C 
ATOM     12  C   UNL     1      -2.043   2.337   0.000  1.00  0.00     0.019 C 
ATOM     13  C   UNL     1      -3.542   2.407   0.000  1.00  0.00     0.044 C 
ATOM     14  C   UNL     1      -4.072   1.004   0.000  1.00  0.00     0.294 C 
ATOM     15  N   UNL     1      -2.901   0.066   0.000  1.00  0.00    -0.343 N 
ATOM     16  O   UNL     1      -4.234  -0.622   0.000  1.00  0.00    -0.632 OA
ATOM     17  C   UNL     1      -2.815  -1.431   0.000  1.00  0.00     0.302 C 
ATOM     18  C   UNL     1      -1.475  -2.105   0.000  1.00  0.00     0.204 C 
ENDROOT
BRANCH   1  19
ATOM     19  O   UNL     1       3.712  -1.807   0.000  1.00  0.00    -0.493 OA
ATOM     20  C   UNL     1       3.798  -3.304   0.000  1.00  0.00     0.278 C 
ENDBRANCH   1  19
BRANCH   6  21
ATOM     21  O   UNL     1       3.540   1.188   0.000  1.00  0.00    -0.493 OA
ATOM     22  C   UNL     1       4.880   0.514   0.000  1.00  0.00     0.278 C 
ENDBRANCH   6  21
BRANCH  18  23
ATOM     23  O   UNL     1      -1.389  -3.603   0.000  1.00  0.00    -0.371 OA
ATOM     24  C   UNL     1      -2.643  -4.426   0.000  1.00  0.00     0.196 C 
ENDBRANCH  18  23
BRANCH   9  25
ATOM     25  O   UNL     1       2.309   1.194   0.000  1.00  0.00    -0.377 OA
ATOM     26  C   UNL     1       3.364   2.260   0.000  1.00  0.00     0.195 C 
ENDBRANCH   9  25
TORSDOF 4
