REMARK SMILES COC(=O)CCCCCCCCCCCc1ccccc1
REMARK SMILES IDX 9 1 8 2 7 3 6 4 5 5 3 6 4 7 2 8 1 9 10 10 11 11 12 12 13 13
REMARK SMILES IDX 14 14 15 15 16 16 17 17 21 18 18 19 20 20 19 21
REMARK H PARENT
ROOT
ATOM      1  C   UNL     1      -2.254  -0.704   0.000  1.00  0.00     0.000 C 
ENDROOT
BRANCH   1   2
ATOM      2  C   UNL     1      -3.525   0.093   0.000  1.00  0.00     0.000 C 
BRANCH   2   3
ATOM      3  C   UNL     1      -4.851  -0.609   0.000  1.00  0.00     0.001 C 
BRANCH   3   4
ATOM      4  C   UNL     1      -6.121   0.188   0.000  1.00  0.00     0.012 C 
BRANCH   4   5
ATOM      5  C   UNL     1      -7.447  -0.514   0.000  1.00  0.00     0.123 C 
BRANCH   5   6
ATOM      6  C   UNL     1      -8.718   0.283   0.000  1.00  0.00     0.305 C 
ATOM      7  O   UNL     1      -8.663   1.782   0.000  1.00  0.00    -0.252 OA
BRANCH   6   8
ATOM      8  O   UNL     1     -10.043  -0.419   0.000  1.00  0.00    -0.469 OA
ATOM      9  C   UNL     1     -11.314   0.378   0.000  1.00  0.00     0.282 C 
ENDBRANCH   6   8
ENDBRANCH   5   6
ENDBRANCH   4   5
ENDBRANCH   3   4
ENDBRANCH   2   3
ENDBRANCH   1   2
BRANCH   1  10
ATOM     10  C   UNL     1      -0.929  -0.002   0.000  1.00  0.00     0.000 C 
BRANCH  10  11
ATOM     11  C   UNL     1       0.342  -0.799   0.000  1.00  0.00     0.000 C 
BRANCH  11  12
ATOM     12  C   UNL     1       1.668  -0.097   0.000  1.00  0.00     0.000 C 
BRANCH  12  13
ATOM     13  C   UNL     1       2.939  -0.894   0.000  1.00  0.00     0.000 C 
BRANCH  13  14
ATOM     14  C   UNL     1       4.264  -0.192   0.000  1.00  0.00     0.005 C 
BRANCH  14  15
ATOM     15  C   UNL     1       5.535  -0.989   0.000  1.00  0.00     0.035 C 
BRANCH  15  16
ATOM     16  C   UNL     1       6.861  -0.286   0.000  1.00  0.00    -0.048 A 
ATOM     17  C   UNL     1       6.915   1.213   0.000  1.00  0.00     0.004 A 
ATOM     18  C   UNL     1       8.131  -1.083   0.000  1.00  0.00     0.004 A 
ATOM     19  C   UNL     1       8.241   1.915   0.000  1.00  0.00     0.000 A 
ATOM     20  C   UNL     1       9.457  -0.381   0.000  1.00  0.00     0.000 A 
ATOM     21  C   UNL     1       9.512   1.118   0.000  1.00  0.00     0.000 A 
ENDBRANCH  15  16
ENDBRANCH  14  15
ENDBRANCH  13  14
ENDBRANCH  12  13
ENDBRANCH  11  12
ENDBRANCH  10  11
ENDBRANCH   1  10
TORSDOF 13
