REMARK SMILES COc1cc(C(=O)O)ccc1O
REMARK SMILES IDX 3 1 4 2 5 3 9 4 10 5 11 6 2 7 1 8 12 9 6 11 7 12 8 13
REMARK H PARENT 12 10 8 14
ROOT
ATOM      1  C   UNL     1       1.369  -0.331   0.000  1.00  0.00     0.161 A 
ATOM      2  C   UNL     1      -0.050  -0.818   0.000  1.00  0.00     0.066 A 
ATOM      3  C   UNL     1      -1.181   0.167   0.000  1.00  0.00     0.063 A 
ATOM      4  C   UNL     1      -0.893   1.639   0.000  1.00  0.00     0.020 A 
ATOM      5  C   UNL     1       0.526   2.126   0.000  1.00  0.00     0.051 A 
ATOM      6  C   UNL     1       1.657   1.141   0.000  1.00  0.00     0.157 A 
ENDROOT
BRANCH   1   7
ATOM      7  O   UNL     1       2.500  -1.317   0.000  1.00  0.00    -0.493 OA
ATOM      8  C   UNL     1       2.212  -2.789   0.000  1.00  0.00     0.278 C 
ENDBRANCH   1   7
BRANCH   6   9
ATOM      9  O   UNL     1       3.076   1.628   0.000  1.00  0.00    -0.504 OA
ATOM     10  H   UNL     1       0.000   0.000   0.000  1.00  0.00     0.293 HD
ENDBRANCH   6   9
BRANCH   3  11
ATOM     11  C   UNL     1      -2.599  -0.320   0.000  1.00  0.00     0.335 C 
ATOM     12  O   UNL     1      -2.887  -1.792   0.000  1.00  0.00    -0.246 OA
BRANCH  11  13
ATOM     13  O   UNL     1      -3.731   0.666   0.000  1.00  0.00    -0.478 OA
ATOM     14  H   UNL     1       0.000   0.000   0.000  1.00  0.00     0.297 HD
ENDBRANCH  11  13
ENDBRANCH   3  11
TORSDOF 4
