REMARK SMILES C=C(CC[C@@H](C)[C@H]1CC[C@@]2(C)C3CCC4C(C)(C)C(=O)CC[C@@]45C[C@]35CC[C@]12C)C(C)COC(C)=O
REMARK SMILES IDX 1 1 2 2 3 3 4 4 5 5 6 6 7 7 8 8 28 9 9 10 27 11 10 12 26 13
REMARK SMILES IDX 12 14 25 15 13 16 24 17 23 18 14 19 22 20 15 21 21 22 16 23
REMARK SMILES IDX 19 24 29 25 11 26 17 27 18 28 20 29 30 30 31 31 32 32 33 33
REMARK SMILES IDX 34 34 35 35 36 36
REMARK H PARENT
ROOT
ATOM      1  C   UNL     1      -7.401  -1.640   0.000  1.00  0.00     0.008 C 
ATOM      2  C   UNL     1      -5.957  -1.233   0.000  1.00  0.00    -0.071 C 
ENDROOT
BRANCH   2   3
ATOM      3  C   UNL     1      -5.588   0.221   0.000  1.00  0.00     0.031 C 
BRANCH   3   4
ATOM      4  C   UNL     1      -4.144   0.627   0.000  1.00  0.00     0.008 C 
BRANCH   4   5
ATOM      5  C   UNL     1      -3.774   2.081   0.000  1.00  0.00    -0.010 C 
ATOM      6  C   UNL     1      -4.849   3.128   0.000  1.00  0.00     0.008 C 
BRANCH   5   7
ATOM      7  C   UNL     1      -2.331   2.488   0.000  1.00  0.00    -0.002 C 
ATOM      8  C   UNL     1      -1.811   3.895   0.000  1.00  0.00     0.005 C 
ATOM      9  C   UNL     1      -1.153   1.559   0.000  1.00  0.00    -0.024 C 
ATOM     10  C   UNL     1      -0.312   3.836   0.000  1.00  0.00     0.008 C 
ATOM     11  C   UNL     1      -1.055   0.062   0.000  1.00  0.00     0.008 C 
ATOM     12  C   UNL     1       0.095   2.392   0.000  1.00  0.00    -0.024 C 
ATOM     13  C   UNL     1       0.290  -0.601   0.000  1.00  0.00     0.008 C 
ATOM     14  C   UNL     1       1.440   1.729   0.000  1.00  0.00     0.002 C 
ATOM     15  C   UNL     1       1.538   0.232   0.000  1.00  0.00    -0.020 C 
ATOM     16  C   UNL     1       2.687   2.562   0.000  1.00  0.00     0.005 C 
ATOM     17  C   UNL     1       1.635  -1.265   0.000  1.00  0.00     0.016 C 
ATOM     18  C   UNL     1       2.883  -0.432   0.000  1.00  0.00    -0.019 C 
ATOM     19  C   UNL     1       4.032   1.898   0.000  1.00  0.00     0.005 C 
ATOM     20  C   UNL     1       2.981  -1.929   0.000  1.00  0.00     0.016 C 
ATOM     21  C   UNL     1       4.130   0.401   0.000  1.00  0.00     0.009 C 
ATOM     22  C   UNL     1       4.326  -2.592   0.000  1.00  0.00     0.077 C 
ATOM     23  C   UNL     1       5.475  -0.262   0.000  1.00  0.00     0.027 C 
ATOM     24  C   UNL     1       5.573  -1.759   0.000  1.00  0.00     0.138 C 
ATOM     25  C   UNL     1      -2.480   0.861   0.000  1.00  0.00     0.012 C 
ATOM     26  C   UNL     1       1.248   3.351   0.000  1.00  0.00     0.012 C 
ATOM     27  C   UNL     1       6.966  -0.426   0.000  1.00  0.00     0.020 C 
ATOM     28  C   UNL     1       5.895   1.178   0.000  1.00  0.00     0.020 C 
ATOM     29  O   UNL     1       6.918  -2.423   0.000  1.00  0.00    -0.299 OA
ENDBRANCH   5   7
ENDBRANCH   4   5
ENDBRANCH   3   4
ENDBRANCH   2   3
BRANCH   2  30
ATOM     30  C   UNL     1      -4.883  -2.280   0.000  1.00  0.00     0.049 C 
ATOM     31  C   UNL     1      -5.252  -3.734   0.000  1.00  0.00     0.016 C 
BRANCH  30  32
ATOM     32  C   UNL     1      -3.439  -1.873   0.000  1.00  0.00     0.240 C 
BRANCH  32  33
ATOM     33  O   UNL     1      -2.365  -2.920   0.000  1.00  0.00    -0.465 OA
BRANCH  33  34
ATOM     34  C   UNL     1      -0.921  -2.513   0.000  1.00  0.00     0.302 C 
ATOM     35  C   UNL     1       0.153  -3.560   0.000  1.00  0.00     0.139 C 
ATOM     36  O   UNL     1      -0.552  -1.059   0.000  1.00  0.00    -0.253 OA
ENDBRANCH  33  34
ENDBRANCH  32  33
ENDBRANCH  30  32
ENDBRANCH   2  30
TORSDOF 8
