REMARK SMILES C=CC(C)(C)c1c2c(c(O)c3ccc(=O)oc13)C=CC(C)(C)O2
REMARK SMILES IDX 6 1 7 2 23 3 20 4 21 5 22 6 19 7 18 8 8 9 9 10 11 11 17 12
REMARK SMILES IDX 16 13 14 14 15 15 13 16 12 17 3 18 4 19 5 20 2 21 1 22 10 23
REMARK H PARENT 10 24
ROOT
ATOM      1  C   UNL     1      -0.209  -0.652   0.000  1.00  0.00     0.048 A 
ATOM      2  C   UNL     1       1.032   0.191   0.000  1.00  0.00     0.139 A 
ATOM      3  O   UNL     1       2.382  -0.462   0.000  1.00  0.00    -0.483 OA
ATOM      4  C   UNL     1       3.623   0.381   0.000  1.00  0.00     0.122 C 
ATOM      5  C   UNL     1       5.077   0.748   0.000  1.00  0.00     0.061 C 
ATOM      6  C   UNL     1       4.237  -0.988   0.000  1.00  0.00     0.061 C 
ATOM      7  C   UNL     1       3.514   1.877   0.000  1.00  0.00     0.021 C 
ATOM      8  C   UNL     1       2.163   2.530   0.000  1.00  0.00     0.015 C 
ATOM      9  C   UNL     1       0.922   1.687   0.000  1.00  0.00     0.059 A 
ATOM     10  C   UNL     1      -0.428   2.340   0.000  1.00  0.00     0.137 A 
ATOM     11  C   UNL     1      -1.669   1.497   0.000  1.00  0.00     0.061 A 
ATOM     12  C   UNL     1      -1.559   0.001   0.000  1.00  0.00     0.149 A 
ATOM     13  O   UNL     1      -2.800  -0.841   0.000  1.00  0.00    -0.422 OA
ATOM     14  C   UNL     1      -4.150  -0.188   0.000  1.00  0.00     0.336 A 
ATOM     15  O   UNL     1      -5.391  -1.031   0.000  1.00  0.00    -0.246 OA
ATOM     16  C   UNL     1      -4.260   1.308   0.000  1.00  0.00     0.095 A 
ATOM     17  C   UNL     1      -3.019   2.151   0.000  1.00  0.00     0.023 A 
ENDROOT
BRANCH   1  18
ATOM     18  C   UNL     1      -0.100  -2.148   0.000  1.00  0.00     0.015 C 
ATOM     19  C   UNL     1      -1.595  -2.257   0.000  1.00  0.00     0.021 C 
ATOM     20  C   UNL     1       1.397  -2.038   0.000  1.00  0.00     0.021 C 
BRANCH  18  21
ATOM     21  C   UNL     1       0.010  -3.644   0.000  1.00  0.00    -0.024 C 
ATOM     22  C   UNL     1       1.360  -4.297   0.000  1.00  0.00     0.005 C 
ENDBRANCH  18  21
ENDBRANCH   1  18
BRANCH  10  23
ATOM     23  O   UNL     1      -0.537   3.836   0.000  1.00  0.00    -0.506 OA
ATOM     24  H   UNL     1       0.000   0.000   0.000  1.00  0.00     0.293 HD
ENDBRANCH  10  23
TORSDOF 3
