REMARK SMILES COc1ccc(-c2coc3cc(O)cc(O)c3c2=O)cc1
REMARK SMILES IDX 7 1 8 2 9 3 10 4 11 5 12 6 14 7 15 8 17 9 18 10 19 11 6 12
REMARK SMILES IDX 3 13 4 14 21 15 5 16 20 17 2 18 1 19 16 20 13 22
REMARK H PARENT 16 21 13 23
ROOT
ATOM      1  C   UNL     1      -0.306  -0.710   0.000  1.00  0.00     0.065 A 
ATOM      2  C   UNL     1       0.275  -2.092   0.000  1.00  0.00     0.208 A 
ATOM      3  O   UNL     1       1.763  -2.281   0.000  1.00  0.00    -0.463 OA
ATOM      4  C   UNL     1       2.671  -1.086   0.000  1.00  0.00     0.145 A 
ATOM      5  C   UNL     1       4.159  -1.274   0.000  1.00  0.00     0.094 A 
ATOM      6  C   UNL     1       5.066  -0.080   0.000  1.00  0.00     0.123 A 
ATOM      7  C   UNL     1       4.485   1.303   0.000  1.00  0.00     0.093 A 
ATOM      8  C   UNL     1       2.997   1.492   0.000  1.00  0.00     0.134 A 
ATOM      9  C   UNL     1       2.090   0.297   0.000  1.00  0.00     0.107 A 
ATOM     10  C   UNL     1       0.601   0.485   0.000  1.00  0.00     0.204 A 
ATOM     11  O   UNL     1       0.020   1.868   0.000  1.00  0.00    -0.288 OA
ENDROOT
BRANCH   1  12
ATOM     12  C   UNL     1      -1.794  -0.521   0.000  1.00  0.00    -0.011 A 
ATOM     13  C   UNL     1      -4.770  -0.145   0.000  1.00  0.00     0.118 A 
ATOM     14  C   UNL     1      -3.863   1.050   0.000  1.00  0.00     0.047 A 
ATOM     15  C   UNL     1      -4.189  -1.528   0.000  1.00  0.00     0.047 A 
ATOM     16  C   UNL     1      -2.375   0.862   0.000  1.00  0.00     0.013 A 
ATOM     17  C   UNL     1      -2.701  -1.716   0.000  1.00  0.00     0.013 A 
BRANCH  13  18
ATOM     18  O   UNL     1      -6.258   0.043   0.000  1.00  0.00    -0.497 OA
ATOM     19  C   UNL     1      -6.839   1.426   0.000  1.00  0.00     0.278 C 
ENDBRANCH  13  18
ENDBRANCH   1  12
BRANCH   8  20
ATOM     20  O   UNL     1       2.416   2.874   0.000  1.00  0.00    -0.507 OA
ATOM     21  H   UNL     1       0.000   0.000   0.000  1.00  0.00     0.293 HD
ENDBRANCH   8  20
BRANCH   6  22
ATOM     22  O   UNL     1       6.554  -0.268   0.000  1.00  0.00    -0.508 OA
ATOM     23  H   UNL     1       0.000   0.000   0.000  1.00  0.00     0.293 HD
ENDBRANCH   6  22
TORSDOF 4
