REMARK SMILES C=C1C[C@@]23CC[C@@H]4C(C)(C)CCC[C@]4(C)[C@@H]2C(=O)C[C@@H]1C3
REMARK SMILES IDX 1 1 2 2 3 3 4 4 5 5 6 6 7 7 8 8 9 9 10 10 11 11 12 12 13 13
REMARK SMILES IDX 14 14 15 15 16 16 17 17 18 18 19 19 20 20 21 21
REMARK H PARENT
ROOT
ATOM      1  C   UNL     1      -5.071  -1.448   0.000  1.00  0.00     0.008 C 
ATOM      2  C   UNL     1      -3.683  -0.878   0.000  1.00  0.00    -0.073 C 
ATOM      3  C   UNL     1      -2.407  -1.666   0.000  1.00  0.00     0.038 C 
ATOM      4  C   UNL     1      -1.263  -0.696   0.000  1.00  0.00    -0.015 C 
ATOM      5  C   UNL     1      -0.551  -2.016   0.000  1.00  0.00     0.008 C 
ATOM      6  C   UNL     1       0.948  -2.060   0.000  1.00  0.00     0.005 C 
ATOM      7  C   UNL     1       1.736  -0.783   0.000  1.00  0.00     0.001 C 
ATOM      8  C   UNL     1       3.235  -0.827   0.000  1.00  0.00    -0.032 C 
ATOM      9  C   UNL     1       4.629  -1.381   0.000  1.00  0.00     0.011 C 
ATOM     10  C   UNL     1       2.931  -2.296   0.000  1.00  0.00     0.011 C 
ATOM     11  C   UNL     1       4.023   0.450   0.000  1.00  0.00     0.007 C 
ATOM     12  C   UNL     1       3.311   1.770   0.000  1.00  0.00     0.001 C 
ATOM     13  C   UNL     1       1.812   1.814   0.000  1.00  0.00     0.008 C 
ATOM     14  C   UNL     1       1.024   0.537   0.000  1.00  0.00    -0.019 C 
ATOM     15  C   UNL     1       0.312   1.858   0.000  1.00  0.00     0.012 C 
ATOM     16  C   UNL     1      -0.475   0.581   0.000  1.00  0.00     0.069 C 
ATOM     17  C   UNL     1      -1.187   1.901   0.000  1.00  0.00     0.137 C 
ATOM     18  O   UNL     1      -0.400   3.178   0.000  1.00  0.00    -0.299 OA
ATOM     19  C   UNL     1      -2.687   1.945   0.000  1.00  0.00     0.084 C 
ATOM     20  C   UNL     1      -3.474   0.669   0.000  1.00  0.00     0.022 C 
ATOM     21  C   UNL     1      -2.762  -0.652   0.000  1.00  0.00     0.016 C 
ENDROOT
TORSDOF 0
