REMARK SMILES Cc1ccc2c(c1O)C(=O)O[C@H](C)C2
REMARK SMILES IDX 1 1 2 2 3 3 4 4 5 5 14 6 12 7 13 8 11 9 9 10 10 11 6 12 7 13
REMARK SMILES IDX 8 14
REMARK H PARENT 8 15
ROOT
ATOM      1  C   UNL     1      -4.040   0.101   0.000  1.00  0.00     0.048 C 
ATOM      2  C   UNL     1      -2.580   0.443   0.000  1.00  0.00    -0.008 A 
ATOM      3  C   UNL     1      -2.147   1.879   0.000  1.00  0.00     0.007 A 
ATOM      4  C   UNL     1      -0.686   2.222   0.000  1.00  0.00     0.005 A 
ATOM      5  C   UNL     1       0.341   1.128   0.000  1.00  0.00    -0.026 A 
ATOM      6  C   UNL     1       1.801   1.471   0.000  1.00  0.00     0.081 C 
ATOM      7  C   UNL     1       2.828   0.377   0.000  1.00  0.00     0.178 C 
ATOM      8  C   UNL     1       4.288   0.720   0.000  1.00  0.00     0.053 C 
ATOM      9  O   UNL     1       2.394  -1.059   0.000  1.00  0.00    -0.459 OA
ATOM     10  C   UNL     1       0.934  -1.401   0.000  1.00  0.00     0.342 C 
ATOM     11  O   UNL     1       0.500  -2.837   0.000  1.00  0.00    -0.246 OA
ATOM     12  C   UNL     1      -0.093  -0.308   0.000  1.00  0.00     0.105 A 
ATOM     13  C   UNL     1      -1.553  -0.650   0.000  1.00  0.00     0.133 A 
ENDROOT
BRANCH  13  14
ATOM     14  O   UNL     1      -1.987  -2.086   0.000  1.00  0.00    -0.507 OA
ATOM     15  H   UNL     1       0.000   0.000   0.000  1.00  0.00     0.293 HD
ENDBRANCH  13  14
TORSDOF 1
