REMARK SMILES COc1cc([C@@H]2O[C@H](c3cc(OC)c4c(c3)OCO4)[C@@H](C)[C@@H]2C)cc(OC)c1OC
REMARK SMILES IDX 6 1 7 2 8 3 20 4 21 5 22 6 23 7 5 8 3 9 4 10 28 11 25 12
REMARK SMILES IDX 24 13 2 14 1 15 29 16 30 17 26 18 27 19 9 20 10 21 16 22
REMARK SMILES IDX 11 23 15 24 14 25 17 26 19 27 18 28 12 29 13 30
REMARK H PARENT
ROOT
ATOM      1  C   UNL     1       0.956   0.880   0.000  1.00  0.00     0.152 C 
ATOM      2  O   UNL     1      -0.236  -0.031   0.000  1.00  0.00    -0.365 OA
ATOM      3  C   UNL     1      -1.470   0.822   0.000  1.00  0.00     0.152 C 
ATOM      4  C   UNL     1      -1.041   2.259   0.000  1.00  0.00     0.025 C 
ATOM      5  C   UNL     1      -1.951   3.451   0.000  1.00  0.00     0.011 C 
ATOM      6  C   UNL     1       0.459   2.295   0.000  1.00  0.00     0.025 C 
ATOM      7  C   UNL     1       1.311   3.529   0.000  1.00  0.00     0.011 C 
ENDROOT
BRANCH   1   8
ATOM      8  C   UNL     1       2.393   0.450   0.000  1.00  0.00    -0.011 A 
ATOM      9  C   UNL     1       4.177  -1.438   0.000  1.00  0.00     0.165 A 
ATOM     10  C   UNL     1       2.740  -1.009   0.000  1.00  0.00     0.057 A 
ATOM     11  C   UNL     1       5.268  -0.409   0.000  1.00  0.00     0.203 A 
ATOM     12  C   UNL     1       4.921   1.051   0.000  1.00  0.00     0.165 A 
ATOM     13  C   UNL     1       3.484   1.480   0.000  1.00  0.00     0.057 A 
BRANCH   9  14
ATOM     14  O   UNL     1       4.524  -2.898   0.000  1.00  0.00    -0.493 OA
ATOM     15  C   UNL     1       3.433  -3.928   0.000  1.00  0.00     0.278 C 
ENDBRANCH   9  14
BRANCH  11  16
ATOM     16  O   UNL     1       6.705  -0.838   0.000  1.00  0.00    -0.490 OA
ATOM     17  C   UNL     1       7.051  -2.297   0.000  1.00  0.00     0.278 C 
ENDBRANCH  11  16
BRANCH  12  18
ATOM     18  O   UNL     1       6.011   2.081   0.000  1.00  0.00    -0.493 OA
ATOM     19  C   UNL     1       7.449   1.651   0.000  1.00  0.00     0.278 C 
ENDBRANCH  12  18
ENDBRANCH   1   8
BRANCH   3  20
ATOM     20  C   UNL     1      -2.886   0.325   0.000  1.00  0.00    -0.011 A 
ATOM     21  C   UNL     1      -3.163  -1.150   0.000  1.00  0.00     0.057 A 
ATOM     22  C   UNL     1      -4.024   1.302   0.000  1.00  0.00     0.057 A 
ATOM     23  C   UNL     1      -4.578  -1.647   0.000  1.00  0.00     0.165 A 
ATOM     24  C   UNL     1      -5.439   0.804   0.000  1.00  0.00     0.170 A 
ATOM     25  C   UNL     1      -5.716  -0.670   0.000  1.00  0.00     0.207 A 
ATOM     26  O   UNL     1      -6.756   1.523   0.000  1.00  0.00    -0.453 OA
ATOM     27  O   UNL     1      -7.204  -0.862   0.000  1.00  0.00    -0.450 OA
ATOM     28  C   UNL     1      -7.846   0.493   0.000  1.00  0.00     0.468 C 
BRANCH  23  29
ATOM     29  O   UNL     1      -4.854  -3.121   0.000  1.00  0.00    -0.493 OA
ATOM     30  C   UNL     1      -3.716  -4.098   0.000  1.00  0.00     0.278 C 
ENDBRANCH  23  29
ENDBRANCH   3  20
TORSDOF 6
