REMARK SMILES C=CCOc1cc2c(cc1OC)[C@H](C)[C@@H](c1cc(OC)c(OC)c(OC)c1)O2
REMARK SMILES IDX 5 1 6 2 7 3 8 4 9 5 10 6 13 7 14 8 15 9 28 10 4 11 3 12 2 13
REMARK SMILES IDX 1 14 11 15 12 16 16 17 17 18 27 19 18 20 24 21 21 22 19 23
REMARK SMILES IDX 20 24 25 25 26 26 22 27 23 28
REMARK H PARENT
ROOT
ATOM      1  C   UNL     1       4.288   0.202   0.000  1.00  0.00     0.165 A 
ATOM      2  C   UNL     1       3.105  -0.721   0.000  1.00  0.00     0.097 A 
ATOM      3  C   UNL     1       1.715  -0.159   0.000  1.00  0.00     0.127 A 
ATOM      4  C   UNL     1       1.506   1.326   0.000  1.00  0.00     0.005 A 
ATOM      5  C   UNL     1       2.688   2.249   0.000  1.00  0.00     0.058 A 
ATOM      6  C   UNL     1       4.079   1.687   0.000  1.00  0.00     0.161 A 
ATOM      7  C   UNL     1       0.029   1.587   0.000  1.00  0.00     0.066 C 
ATOM      8  C   UNL     1      -0.628   2.935   0.000  1.00  0.00     0.017 C 
ATOM      9  C   UNL     1      -0.675   0.263   0.000  1.00  0.00     0.211 C 
ATOM     10  O   UNL     1       0.366  -0.817   0.000  1.00  0.00    -0.485 OA
ENDROOT
BRANCH   1  11
ATOM     11  O   UNL     1       5.678  -0.360   0.000  1.00  0.00    -0.486 OA
BRANCH  11  12
ATOM     12  C   UNL     1       5.887  -1.846   0.000  1.00  0.00     0.257 C 
BRANCH  12  13
ATOM     13  C   UNL     1       7.277  -2.408   0.000  1.00  0.00     0.006 C 
ATOM     14  C   UNL     1       7.486  -3.893   0.000  1.00  0.00     0.007 C 
ENDBRANCH  12  13
ENDBRANCH  11  12
ENDBRANCH   1  11
BRANCH   6  15
ATOM     15  O   UNL     1       5.261   2.611   0.000  1.00  0.00    -0.493 OA
ATOM     16  C   UNL     1       6.652   2.049   0.000  1.00  0.00     0.278 C 
ENDBRANCH   6  15
BRANCH   9  17
ATOM     17  C   UNL     1      -2.161   0.054   0.000  1.00  0.00     0.001 A 
ATOM     18  C   UNL     1      -3.084   1.236   0.000  1.00  0.00     0.058 A 
ATOM     19  C   UNL     1      -2.723  -1.337   0.000  1.00  0.00     0.058 A 
ATOM     20  C   UNL     1      -4.570   1.028   0.000  1.00  0.00     0.165 A 
ATOM     21  C   UNL     1      -4.208  -1.545   0.000  1.00  0.00     0.165 A 
ATOM     22  C   UNL     1      -5.132  -0.363   0.000  1.00  0.00     0.203 A 
BRANCH  20  23
ATOM     23  O   UNL     1      -5.493   2.210   0.000  1.00  0.00    -0.493 OA
ATOM     24  C   UNL     1      -4.931   3.600   0.000  1.00  0.00     0.278 C 
ENDBRANCH  20  23
BRANCH  21  25
ATOM     25  O   UNL     1      -4.771  -2.936   0.000  1.00  0.00    -0.493 OA
ATOM     26  C   UNL     1      -3.847  -4.118   0.000  1.00  0.00     0.278 C 
ENDBRANCH  21  25
BRANCH  22  27
ATOM     27  O   UNL     1      -6.617  -0.572   0.000  1.00  0.00    -0.490 OA
ATOM     28  C   UNL     1      -7.179  -1.962   0.000  1.00  0.00     0.278 C 
ENDBRANCH  22  27
ENDBRANCH   9  17
TORSDOF 8
