REMARK SMILES COC(=O)[C@@H]1c2ccoc2C[C@H]2[C@H]1[C@@H](OC(C)=O)[C@H](OC(C)=O)[C@H]1C(C)(C)CCC[C@]21C
REMARK SMILES IDX 5 1 6 2 10 3 11 4 12 5 13 6 14 7 19 8 24 9 25 10 26 11 27 12
REMARK SMILES IDX 28 13 29 14 30 15 31 16 32 17 9 18 8 19 7 20 3 21 4 22 2 23
REMARK SMILES IDX 1 24 15 25 16 26 17 27 18 28 20 29 21 30 22 31 23 32
REMARK H PARENT
ROOT
ATOM      1  C   UNL     1      -2.544   0.478   0.000  1.00  0.00     0.140 C 
ATOM      2  C   UNL     1      -3.688  -0.491   0.000  1.00  0.00     0.008 A 
ATOM      3  C   UNL     1      -3.421  -1.967   0.000  1.00  0.00     0.108 A 
ATOM      4  C   UNL     1      -2.009  -2.473   0.000  1.00  0.00     0.080 C 
ATOM      5  C   UNL     1      -0.864  -1.503   0.000  1.00  0.00     0.011 C 
ATOM      6  C   UNL     1      -1.132  -0.028   0.000  1.00  0.00     0.057 C 
ATOM      7  C   UNL     1       0.012   0.942   0.000  1.00  0.00     0.222 C 
ATOM      8  C   UNL     1       1.424   0.436   0.000  1.00  0.00     0.221 C 
ATOM      9  C   UNL     1       1.692  -1.040   0.000  1.00  0.00     0.046 C 
ATOM     10  C   UNL     1       3.104  -1.546   0.000  1.00  0.00    -0.028 C 
ATOM     11  C   UNL     1       4.604  -1.538   0.000  1.00  0.00     0.011 C 
ATOM     12  C   UNL     1       3.357  -0.067   0.000  1.00  0.00     0.011 C 
ATOM     13  C   UNL     1       3.372  -3.022   0.000  1.00  0.00     0.007 C 
ATOM     14  C   UNL     1       2.228  -3.991   0.000  1.00  0.00     0.001 C 
ATOM     15  C   UNL     1       0.816  -3.485   0.000  1.00  0.00     0.007 C 
ATOM     16  C   UNL     1       0.548  -2.010   0.000  1.00  0.00    -0.022 C 
ATOM     17  C   UNL     1      -0.596  -2.979   0.000  1.00  0.00     0.012 C 
ATOM     18  O   UNL     1      -4.742  -2.678   0.000  1.00  0.00    -0.469 OA
ATOM     19  C   UNL     1      -5.826  -1.641   0.000  1.00  0.00     0.195 A 
ATOM     20  C   UNL     1      -5.175  -0.290   0.000  1.00  0.00     0.047 A 
ENDROOT
BRANCH   1  21
ATOM     21  C   UNL     1      -2.812   1.954   0.000  1.00  0.00     0.313 C 
ATOM     22  O   UNL     1      -4.224   2.461   0.000  1.00  0.00    -0.252 OA
BRANCH  21  23
ATOM     23  O   UNL     1      -1.668   2.924   0.000  1.00  0.00    -0.469 OA
ATOM     24  C   UNL     1      -1.935   4.400   0.000  1.00  0.00     0.282 C 
ENDBRANCH  21  23
ENDBRANCH   1  21
BRANCH   7  25
ATOM     25  O   UNL     1      -0.256   2.418   0.000  1.00  0.00    -0.458 OA
BRANCH  25  26
ATOM     26  C   UNL     1       0.889   3.388   0.000  1.00  0.00     0.303 C 
ATOM     27  C   UNL     1       0.621   4.864   0.000  1.00  0.00     0.139 C 
ATOM     28  O   UNL     1       2.301   2.882   0.000  1.00  0.00    -0.253 OA
ENDBRANCH  25  26
ENDBRANCH   7  25
BRANCH   8  29
ATOM     29  O   UNL     1       2.569   1.406   0.000  1.00  0.00    -0.458 OA
BRANCH  29  30
ATOM     30  C   UNL     1       3.981   0.900   0.000  1.00  0.00     0.303 C 
ATOM     31  C   UNL     1       5.125   1.870   0.000  1.00  0.00     0.139 C 
ATOM     32  O   UNL     1       4.248  -0.576   0.000  1.00  0.00    -0.253 OA
ENDBRANCH  29  30
ENDBRANCH   8  29
TORSDOF 6
