REMARK SMILES COC(=O)CCc1ccc2c(c1OC)C=CC(C)(C)O2
REMARK SMILES IDX 5 1 3 2 4 3 2 4 1 5 6 6 7 7 8 8 12 9 9 10 11 11 10 12 15 13
REMARK SMILES IDX 20 14 16 15 17 16 18 17 19 18 13 19 14 20
REMARK H PARENT
ROOT
ATOM      1  C   UNL     1      -3.118  -0.001   0.000  1.00  0.00     0.127 C 
ENDROOT
BRANCH   1   2
ATOM      2  C   UNL     1      -4.616  -0.064   0.000  1.00  0.00     0.305 C 
ATOM      3  O   UNL     1      -5.311  -1.394   0.000  1.00  0.00    -0.252 OA
BRANCH   2   4
ATOM      4  O   UNL     1      -5.420   1.202   0.000  1.00  0.00    -0.469 OA
ATOM      5  C   UNL     1      -6.919   1.139   0.000  1.00  0.00     0.282 C 
ENDBRANCH   2   4
ENDBRANCH   1   2
BRANCH   1   6
ATOM      6  C   UNL     1      -2.314  -1.268   0.000  1.00  0.00     0.051 C 
BRANCH   6   7
ATOM      7  C   UNL     1      -0.815  -1.204   0.000  1.00  0.00    -0.004 A 
ATOM      8  C   UNL     1      -0.011  -2.471   0.000  1.00  0.00     0.011 A 
ATOM      9  C   UNL     1      -0.120   0.125   0.000  1.00  0.00     0.133 A 
ATOM     10  C   UNL     1       1.488  -2.408   0.000  1.00  0.00     0.047 A 
ATOM     11  C   UNL     1       1.378   0.188   0.000  1.00  0.00     0.059 A 
ATOM     12  C   UNL     1       2.182  -1.078   0.000  1.00  0.00     0.131 A 
ATOM     13  C   UNL     1       2.073   1.517   0.000  1.00  0.00     0.015 C 
ATOM     14  O   UNL     1       3.681  -1.015   0.000  1.00  0.00    -0.483 OA
ATOM     15  C   UNL     1       3.572   1.581   0.000  1.00  0.00     0.021 C 
ATOM     16  C   UNL     1       4.376   0.314   0.000  1.00  0.00     0.122 C 
ATOM     17  C   UNL     1       5.483   1.326   0.000  1.00  0.00     0.061 C 
ATOM     18  C   UNL     1       5.564  -0.601   0.000  1.00  0.00     0.061 C 
BRANCH   9  19
ATOM     19  O   UNL     1      -0.924   1.391   0.000  1.00  0.00    -0.496 OA
ATOM     20  C   UNL     1      -0.230   2.721   0.000  1.00  0.00     0.278 C 
ENDBRANCH   9  19
ENDBRANCH   6   7
ENDBRANCH   1   6
TORSDOF 5
