REMARK SMILES CC(C)(O)[C@@H](O)C[C@@H](O)[C@](C)(O)[C@H]1CC[C@@]2(O)C3=CC(=O)[C@@H]4C[C@@H](O)[C@@H](O)C[C@]4(C)[C@H]3CC[C@]12C
REMARK SMILES IDX 7 1 5 2 2 3 1 4 3 5 4 6 6 8 8 10 9 11 10 13 11 14 12 15
REMARK SMILES IDX 13 17 14 18 34 19 15 20 33 21 16 22 32 23 18 24 31 25 19 26
REMARK SMILES IDX 29 27 20 28 28 29 22 30 26 31 23 32 24 33 35 34 30 35 21 36
REMARK SMILES IDX 17 37 27 39 25 41
REMARK H PARENT 4 7 6 9 9 12 12 16 17 38 27 40 25 42
ROOT
ATOM      1  C   UNL     1       4.279  -0.503   0.000  1.00  0.00     0.069 C 
ENDROOT
BRANCH   1   2
ATOM      2  C   UNL     1       3.882  -1.950   0.000  1.00  0.00     0.148 C 
BRANCH   2   3
ATOM      3  C   UNL     1       4.936  -3.017   0.000  1.00  0.00     0.085 C 
ATOM      4  C   UNL     1       6.003  -1.962   0.000  1.00  0.00     0.044 C 
ATOM      5  C   UNL     1       3.869  -4.071   0.000  1.00  0.00     0.044 C 
BRANCH   3   6
ATOM      6  O   UNL     1       5.990  -4.084   0.000  1.00  0.00    -0.388 OA
ATOM      7  H   UNL     1       0.000   0.000   0.000  1.00  0.00     0.211 HD
ENDBRANCH   3   6
ENDBRANCH   2   3
BRANCH   2   8
ATOM      8  O   UNL     1       2.430  -2.329   0.000  1.00  0.00    -0.390 OA
ATOM      9  H   UNL     1       0.000   0.000   0.000  1.00  0.00     0.211 HD
ENDBRANCH   2   8
ENDBRANCH   1   2
BRANCH   1  10
ATOM     10  C   UNL     1       3.224   0.564   0.000  1.00  0.00     0.148 C 
BRANCH  10  11
ATOM     11  O   UNL     1       1.773   0.184   0.000  1.00  0.00    -0.390 OA
ATOM     12  H   UNL     1       0.000   0.000   0.000  1.00  0.00     0.211 HD
ENDBRANCH  10  11
BRANCH  10  13
ATOM     13  C   UNL     1       3.621   2.010   0.000  1.00  0.00     0.091 C 
ATOM     14  C   UNL     1       5.067   1.613   0.000  1.00  0.00     0.045 C 
BRANCH  13  15
ATOM     15  O   UNL     1       4.018   3.457   0.000  1.00  0.00    -0.387 OA
ATOM     16  H   UNL     1       0.000   0.000   0.000  1.00  0.00     0.211 HD
ENDBRANCH  13  15
BRANCH  13  17
ATOM     17  C   UNL     1       2.174   2.407   0.000  1.00  0.00     0.032 C 
ATOM     18  C   UNL     1       1.645   3.811   0.000  1.00  0.00     0.010 C 
ATOM     19  C   UNL     1       1.003   1.470   0.000  1.00  0.00     0.006 C 
ATOM     20  C   UNL     1       0.147   3.741   0.000  1.00  0.00     0.041 C 
ATOM     21  C   UNL     1       0.916  -0.028   0.000  1.00  0.00     0.011 C 
ATOM     22  C   UNL     1      -0.250   2.294   0.000  1.00  0.00     0.092 C 
ATOM     23  C   UNL     1      -0.425  -0.701   0.000  1.00  0.00     0.009 C 
ATOM     24  C   UNL     1      -1.591   1.621   0.000  1.00  0.00    -0.031 C 
ATOM     25  C   UNL     1      -1.678   0.124   0.000  1.00  0.00     0.025 C 
ATOM     26  C   UNL     1      -2.844   2.446   0.000  1.00  0.00     0.050 C 
ATOM     27  C   UNL     1      -3.018  -0.549   0.000  1.00  0.00    -0.013 C 
ATOM     28  C   UNL     1      -4.184   1.773   0.000  1.00  0.00     0.159 C 
ATOM     29  C   UNL     1      -3.106  -2.047   0.000  1.00  0.00     0.042 C 
ATOM     30  C   UNL     1      -4.272   0.275   0.000  1.00  0.00     0.070 C 
ATOM     31  C   UNL     1      -4.446  -2.720   0.000  1.00  0.00     0.143 C 
ATOM     32  C   UNL     1      -5.612  -0.398   0.000  1.00  0.00     0.047 C 
ATOM     33  C   UNL     1      -5.700  -1.895   0.000  1.00  0.00     0.143 C 
ATOM     34  C   UNL     1       2.336   0.781   0.000  1.00  0.00     0.015 C 
ATOM     35  C   UNL     1      -1.765  -1.374   0.000  1.00  0.00     0.013 C 
ATOM     36  O   UNL     1      -5.437   2.597   0.000  1.00  0.00    -0.295 OA
BRANCH  22  37
ATOM     37  O   UNL     1      -1.410   3.245   0.000  1.00  0.00    -0.385 OA
ATOM     38  H   UNL     1       0.000   0.000   0.000  1.00  0.00     0.211 HD
ENDBRANCH  22  37
BRANCH  31  39
ATOM     39  O   UNL     1      -4.534  -4.217   0.000  1.00  0.00    -0.390 OA
ATOM     40  H   UNL     1       0.000   0.000   0.000  1.00  0.00     0.211 HD
ENDBRANCH  31  39
BRANCH  33  41
ATOM     41  O   UNL     1      -7.040  -2.568   0.000  1.00  0.00    -0.390 OA
ATOM     42  H   UNL     1       0.000   0.000   0.000  1.00  0.00     0.211 HD
ENDBRANCH  33  41
ENDBRANCH  13  17
ENDBRANCH  10  13
ENDBRANCH   1  10
TORSDOF 12
