REMARK SMILES COc1ccc([C@H]2c3cc(OC(C)=O)c(OC)cc3C[C@@H](COC(C)=O)[C@@H]2COC(C)=O)cc1OC
REMARK SMILES IDX 7 1 8 2 9 3 10 4 15 5 18 6 19 7 20 8 21 9 27 10 6 11 3 12
REMARK SMILES IDX 4 13 34 14 5 15 33 16 2 17 1 18 35 19 36 20 28 21 29 22
REMARK SMILES IDX 30 23 31 24 32 25 22 26 23 27 24 28 25 29 26 30 11 31 12 32
REMARK SMILES IDX 13 33 14 34 16 35 17 36
REMARK H PARENT
ROOT
ATOM      1  C   UNL     1      -0.225  -0.117   0.000  1.00  0.00     0.057 C 
ATOM      2  C   UNL     1       0.473   1.210   0.000  1.00  0.00    -0.033 A 
ATOM      3  C   UNL     1       1.972   1.269   0.000  1.00  0.00     0.056 A 
ATOM      4  C   UNL     1       2.671   2.597   0.000  1.00  0.00     0.173 A 
ATOM      5  C   UNL     1       1.870   3.865   0.000  1.00  0.00     0.161 A 
ATOM      6  C   UNL     1       0.371   3.806   0.000  1.00  0.00     0.054 A 
ATOM      7  C   UNL     1      -0.327   2.479   0.000  1.00  0.00    -0.040 A 
ATOM      8  C   UNL     1      -1.826   2.420   0.000  1.00  0.00     0.043 C 
ATOM      9  C   UNL     1      -2.524   1.092   0.000  1.00  0.00     0.039 C 
ATOM     10  C   UNL     1      -1.724  -0.176   0.000  1.00  0.00     0.046 C 
ENDROOT
BRANCH   1  11
ATOM     11  C   UNL     1       0.576  -1.386   0.000  1.00  0.00    -0.036 A 
ATOM     12  C   UNL     1       2.177  -3.923   0.000  1.00  0.00     0.160 A 
ATOM     13  C   UNL     1       0.678  -3.982   0.000  1.00  0.00     0.051 A 
ATOM     14  C   UNL     1       2.875  -2.595   0.000  1.00  0.00     0.161 A 
ATOM     15  C   UNL     1      -0.122  -2.713   0.000  1.00  0.00     0.008 A 
ATOM     16  C   UNL     1       2.075  -1.327   0.000  1.00  0.00     0.054 A 
BRANCH  12  17
ATOM     17  O   UNL     1       2.978  -5.191   0.000  1.00  0.00    -0.493 OA
ATOM     18  C   UNL     1       2.279  -6.519   0.000  1.00  0.00     0.278 C 
ENDBRANCH  12  17
BRANCH  14  19
ATOM     19  O   UNL     1       4.374  -2.536   0.000  1.00  0.00    -0.493 OA
ATOM     20  C   UNL     1       5.072  -1.208   0.000  1.00  0.00     0.278 C 
ENDBRANCH  14  19
ENDBRANCH   1  11
BRANCH  10  21
ATOM     21  C   UNL     1      -2.422  -1.504   0.000  1.00  0.00     0.237 C 
BRANCH  21  22
ATOM     22  O   UNL     1      -3.921  -1.563   0.000  1.00  0.00    -0.466 OA
BRANCH  22  23
ATOM     23  C   UNL     1      -4.619  -2.890   0.000  1.00  0.00     0.302 C 
ATOM     24  C   UNL     1      -6.118  -2.950   0.000  1.00  0.00     0.139 C 
ATOM     25  O   UNL     1      -3.818  -4.159   0.000  1.00  0.00    -0.253 OA
ENDBRANCH  22  23
ENDBRANCH  21  22
ENDBRANCH  10  21
BRANCH   9  26
ATOM     26  C   UNL     1      -4.023   1.033   0.000  1.00  0.00     0.237 C 
BRANCH  26  27
ATOM     27  O   UNL     1      -4.824   2.302   0.000  1.00  0.00    -0.466 OA
BRANCH  27  28
ATOM     28  C   UNL     1      -6.322   2.243   0.000  1.00  0.00     0.302 C 
ATOM     29  C   UNL     1      -7.123   3.511   0.000  1.00  0.00     0.139 C 
ATOM     30  O   UNL     1      -7.021   0.915   0.000  1.00  0.00    -0.253 OA
ENDBRANCH  27  28
ENDBRANCH  26  27
ENDBRANCH   9  26
BRANCH   4  31
ATOM     31  O   UNL     1       4.170   2.656   0.000  1.00  0.00    -0.423 OA
BRANCH  31  32
ATOM     32  C   UNL     1       4.970   1.388   0.000  1.00  0.00     0.308 C 
ATOM     33  C   UNL     1       6.469   1.447   0.000  1.00  0.00     0.139 C 
ATOM     34  O   UNL     1       4.272   0.060   0.000  1.00  0.00    -0.252 OA
ENDBRANCH  31  32
ENDBRANCH   4  31
BRANCH   5  35
ATOM     35  O   UNL     1       2.568   5.193   0.000  1.00  0.00    -0.493 OA
ATOM     36  C   UNL     1       4.067   5.252   0.000  1.00  0.00     0.278 C 
ENDBRANCH   5  35
TORSDOF 12
