REMARK SMILES C=CC(C)(C)c1cc2c(O)c3c(c(C(C)(C)C=C)c2oc1=O)OC(C)(C)C=C3
REMARK SMILES IDX 6 1 7 2 8 3 9 4 11 5 12 6 23 7 24 8 25 9 26 10 27 11 28 12
REMARK SMILES IDX 13 13 19 14 20 15 21 16 22 17 3 18 4 19 5 20 2 21 1 22 10 23
REMARK SMILES IDX 14 25 15 26 16 27 17 28 18 29
REMARK H PARENT 10 24
ROOT
ATOM      1  C   UNL     1      -3.244   0.278   0.000  1.00  0.00     0.048 A 
ATOM      2  C   UNL     1      -2.204   1.358   0.000  1.00  0.00     0.028 A 
ATOM      3  C   UNL     1      -0.748   0.998   0.000  1.00  0.00     0.061 A 
ATOM      4  C   UNL     1       0.292   2.079   0.000  1.00  0.00     0.137 A 
ATOM      5  C   UNL     1       1.748   1.718   0.000  1.00  0.00     0.059 A 
ATOM      6  C   UNL     1       2.164   0.277   0.000  1.00  0.00     0.139 A 
ATOM      7  O   UNL     1       3.620  -0.084   0.000  1.00  0.00    -0.483 OA
ATOM      8  C   UNL     1       4.660   0.997   0.000  1.00  0.00     0.122 C 
ATOM      9  C   UNL     1       6.007   1.657   0.000  1.00  0.00     0.061 C 
ATOM     10  C   UNL     1       5.544  -0.215   0.000  1.00  0.00     0.061 C 
ATOM     11  C   UNL     1       4.245   2.438   0.000  1.00  0.00     0.021 C 
ATOM     12  C   UNL     1       2.788   2.799   0.000  1.00  0.00     0.015 C 
ATOM     13  C   UNL     1       1.124  -0.804   0.000  1.00  0.00     0.048 A 
ATOM     14  C   UNL     1      -0.332  -0.444   0.000  1.00  0.00     0.149 A 
ATOM     15  O   UNL     1      -1.373  -1.524   0.000  1.00  0.00    -0.422 OA
ATOM     16  C   UNL     1      -2.829  -1.164   0.000  1.00  0.00     0.340 A 
ATOM     17  O   UNL     1      -3.869  -2.244   0.000  1.00  0.00    -0.246 OA
ENDROOT
BRANCH   1  18
ATOM     18  C   UNL     1      -4.700   0.638   0.000  1.00  0.00     0.014 C 
ATOM     19  C   UNL     1      -4.340   2.094   0.000  1.00  0.00     0.021 C 
ATOM     20  C   UNL     1      -5.061  -0.818   0.000  1.00  0.00     0.021 C 
BRANCH  18  21
ATOM     21  C   UNL     1      -6.156   0.999   0.000  1.00  0.00    -0.024 C 
ATOM     22  C   UNL     1      -7.197  -0.082   0.000  1.00  0.00     0.005 C 
ENDBRANCH  18  21
ENDBRANCH   1  18
BRANCH   4  23
ATOM     23  O   UNL     1      -0.124   3.520   0.000  1.00  0.00    -0.506 OA
ATOM     24  H   UNL     1       0.000   0.000   0.000  1.00  0.00     0.293 HD
ENDBRANCH   4  23
BRANCH  13  25
ATOM     25  C   UNL     1       1.539  -2.245   0.000  1.00  0.00     0.015 C 
ATOM     26  C   UNL     1       0.098  -2.661   0.000  1.00  0.00     0.021 C 
ATOM     27  C   UNL     1       2.981  -1.829   0.000  1.00  0.00     0.021 C 
BRANCH  25  28
ATOM     28  C   UNL     1       1.955  -3.687   0.000  1.00  0.00    -0.024 C 
ATOM     29  C   UNL     1       3.411  -4.047   0.000  1.00  0.00     0.005 C 
ENDBRANCH  25  28
ENDBRANCH  13  25
TORSDOF 5
