REMARK SMILES Cc1cc(O)c2c(c1)C(=O)[C@@H]1C[C@H](O)CC[C@H]1[C@@H]2O
REMARK SMILES IDX 1 1 2 2 3 3 4 4 6 5 7 6 8 7 9 8 10 9 11 10 12 11 13 12 15 13
REMARK SMILES IDX 16 14 17 15 18 16 5 17 19 19 14 21
REMARK H PARENT 5 18 19 20 14 22
ROOT
ATOM      1  C   UNL     1      -4.936  -1.867   0.000  1.00  0.00     0.044 C 
ATOM      2  C   UNL     1      -3.695  -1.024   0.000  1.00  0.00    -0.047 A 
ATOM      3  C   UNL     1      -3.805   0.472   0.000  1.00  0.00     0.050 A 
ATOM      4  C   UNL     1      -2.565   1.315   0.000  1.00  0.00     0.122 A 
ATOM      5  C   UNL     1      -1.214   0.663   0.000  1.00  0.00     0.033 A 
ATOM      6  C   UNL     1      -1.104  -0.833   0.000  1.00  0.00     0.028 A 
ATOM      7  C   UNL     1      -2.345  -1.677   0.000  1.00  0.00     0.016 A 
ATOM      8  C   UNL     1       0.246  -1.486   0.000  1.00  0.00     0.166 C 
ATOM      9  O   UNL     1       0.356  -2.982   0.000  1.00  0.00    -0.294 OA
ATOM     10  C   UNL     1       1.487  -0.643   0.000  1.00  0.00     0.070 C 
ATOM     11  C   UNL     1       2.837  -1.295   0.000  1.00  0.00     0.044 C 
ATOM     12  C   UNL     1       4.078  -0.452   0.000  1.00  0.00     0.115 C 
ATOM     13  C   UNL     1       3.968   1.044   0.000  1.00  0.00     0.032 C 
ATOM     14  C   UNL     1       2.617   1.697   0.000  1.00  0.00     0.010 C 
ATOM     15  C   UNL     1       1.377   0.853   0.000  1.00  0.00     0.033 C 
ATOM     16  C   UNL     1       0.026   1.506   0.000  1.00  0.00     0.153 C 
ENDROOT
BRANCH   4  17
ATOM     17  O   UNL     1      -2.675   2.811   0.000  1.00  0.00    -0.508 OA
ATOM     18  H   UNL     1       0.000   0.000   0.000  1.00  0.00     0.293 HD
ENDBRANCH   4  17
BRANCH  16  19
ATOM     19  O   UNL     1      -0.084   3.002   0.000  1.00  0.00    -0.388 OA
ATOM     20  H   UNL     1       0.000   0.000   0.000  1.00  0.00     0.211 HD
ENDBRANCH  16  19
BRANCH  12  21
ATOM     21  O   UNL     1       5.429  -1.105   0.000  1.00  0.00    -0.393 OA
ATOM     22  H   UNL     1       0.000   0.000   0.000  1.00  0.00     0.210 HD
ENDBRANCH  12  21
TORSDOF 3
