REMARK SMILES CC1=C2C(=O)O[C@@H](c3ccoc3)[C@]2(C)CCC1=O
REMARK SMILES IDX 1 1 2 2 3 3 4 4 5 5 6 6 7 7 13 8 14 9 15 10 16 11 17 12
REMARK SMILES IDX 18 13 8 14 12 15 9 16 11 17 10 18
REMARK H PARENT
ROOT
ATOM      1  C   UNL     1       3.999  -1.018   0.000  1.00  0.00     0.049 C 
ATOM      2  C   UNL     1       2.805  -0.109   0.000  1.00  0.00     0.003 C 
ATOM      3  C   UNL     1       1.422  -0.689   0.000  1.00  0.00     0.054 C 
ATOM      4  C   UNL     1       0.926  -2.104   0.000  1.00  0.00     0.335 C 
ATOM      5  O   UNL     1       1.781  -3.337   0.000  1.00  0.00    -0.247 OA
ATOM      6  O   UNL     1      -0.573  -2.071   0.000  1.00  0.00    -0.453 OA
ATOM      7  C   UNL     1      -1.005  -0.634   0.000  1.00  0.00     0.221 C 
ATOM      8  C   UNL     1       0.228   0.220   0.000  1.00  0.00     0.042 C 
ATOM      9  C   UNL     1      -1.054   0.999   0.000  1.00  0.00     0.021 C 
ATOM     10  C   UNL     1       0.418   1.708   0.000  1.00  0.00     0.024 C 
ATOM     11  C   UNL     1       1.802   2.287   0.000  1.00  0.00     0.082 C 
ATOM     12  C   UNL     1       2.995   1.379   0.000  1.00  0.00     0.159 C 
ATOM     13  O   UNL     1       4.379   1.958   0.000  1.00  0.00    -0.295 OA
ENDROOT
BRANCH   7  14
ATOM     14  C   UNL     1      -2.421  -0.139   0.000  1.00  0.00     0.032 A 
ATOM     15  C   UNL     1      -3.653  -0.994   0.000  1.00  0.00     0.202 A 
ATOM     16  C   UNL     1      -2.852   1.298   0.000  1.00  0.00     0.049 A 
ATOM     17  O   UNL     1      -4.847  -0.085   0.000  1.00  0.00    -0.472 OA
ATOM     18  C   UNL     1      -4.352   1.331   0.000  1.00  0.00     0.195 A 
ENDBRANCH   7  14
TORSDOF 1
