REMARK SMILES C[C@@H]1OC=C(C(=O)O)[C@H]2C[C@@H]3N(CC[C@@]34C(=O)Nc3ccccc34)C[C@H]12
REMARK SMILES IDX 6 1 7 2 5 3 2 4 3 5 26 6 4 7 25 8 9 9 12 10 10 11 11 12
REMARK SMILES IDX 13 13 15 14 14 15 16 16 24 17 18 18 23 19 19 20 22 21 20 22
REMARK SMILES IDX 21 23 1 24 17 25 8 27
REMARK H PARENT 18 26 8 28
ROOT
ATOM      1  C   UNL     1      -2.982  -2.578   0.000  1.00  0.00     0.334 C 
ATOM      2  O   UNL     1      -1.546  -3.010   0.000  1.00  0.00    -0.247 OA
ENDROOT
BRANCH   1   3
ATOM      3  C   UNL     1      -3.326  -1.118   0.000  1.00  0.00     0.075 C 
ATOM      4  C   UNL     1      -4.015   1.802   0.000  1.00  0.00     0.174 C 
ATOM      5  O   UNL     1      -5.107   0.774   0.000  1.00  0.00    -0.497 OA
ATOM      6  C   UNL     1      -2.578   1.370   0.000  1.00  0.00     0.052 C 
ATOM      7  C   UNL     1      -4.763  -0.686   0.000  1.00  0.00     0.198 C 
ATOM      8  C   UNL     1      -1.486   2.398   0.000  1.00  0.00     0.092 C 
ATOM      9  C   UNL     1      -2.234  -0.090   0.000  1.00  0.00     0.039 C 
ATOM     10  N   UNL     1      -0.049   1.966   0.000  1.00  0.00    -0.298 NA
ATOM     11  C   UNL     1      -0.798  -0.522   0.000  1.00  0.00     0.030 C 
ATOM     12  C   UNL     1       0.295   0.506   0.000  1.00  0.00     0.077 C 
ATOM     13  C   UNL     1       1.233   2.745   0.000  1.00  0.00     0.086 C 
ATOM     14  C   UNL     1       1.790   0.383   0.000  1.00  0.00     0.093 C 
ATOM     15  C   UNL     1       2.369   1.766   0.000  1.00  0.00     0.039 C 
ATOM     16  C   UNL     1       1.210  -1.001   0.000  1.00  0.00     0.236 C 
ATOM     17  C   UNL     1       3.284   0.259   0.000  1.00  0.00    -0.007 A 
ATOM     18  N   UNL     1       2.346  -1.980   0.000  1.00  0.00    -0.325 N 
ATOM     19  C   UNL     1       4.377   1.287   0.000  1.00  0.00     0.007 A 
ATOM     20  C   UNL     1       3.629  -1.201   0.000  1.00  0.00     0.045 A 
ATOM     21  C   UNL     1       5.813   0.855   0.000  1.00  0.00     0.000 A 
ATOM     22  C   UNL     1       5.065  -1.633   0.000  1.00  0.00     0.026 A 
ATOM     23  C   UNL     1       6.157  -0.605   0.000  1.00  0.00     0.002 A 
ATOM     24  C   UNL     1      -4.359   3.262   0.000  1.00  0.00     0.053 C 
ATOM     25  O   UNL     1      -0.250  -1.345   0.000  1.00  0.00    -0.274 OA
ATOM     26  H   UNL     1       0.000   0.000   0.000  1.00  0.00     0.169 HD
ENDBRANCH   1   3
BRANCH   1  27
ATOM     27  O   UNL     1      -4.075  -3.606   0.000  1.00  0.00    -0.478 OA
ATOM     28  H   UNL     1       0.000   0.000   0.000  1.00  0.00     0.297 HD
ENDBRANCH   1  27
TORSDOF 2
