REMARK SMILES COC(=O)C[C@@H](C(C)(C)C(=O)OC)[C@@]1(C)C(=O)C=C(C)[C@@]12CC[C@]1(C)C2=CC(=O)O[C@H]1c1ccoc1
REMARK SMILES IDX 6 1 5 2 3 3 4 4 2 5 1 6 7 7 8 8 9 9 10 10 11 11 12 12 13 13
REMARK SMILES IDX 14 14 16 15 21 16 18 17 19 18 22 19 26 20 23 21 24 22 27 23
REMARK SMILES IDX 31 24 28 25 30 26 15 27 17 28 20 29 25 30 29 31 32 32 36 33
REMARK SMILES IDX 33 34 35 35 34 36
REMARK H PARENT
ROOT
ATOM      1  C   UNL     1       1.753   0.291   0.000  1.00  0.00     0.032 C 
ENDROOT
BRANCH   1   2
ATOM      2  C   UNL     1       0.377  -0.306   0.000  1.00  0.00     0.128 C 
BRANCH   2   3
ATOM      3  C   UNL     1       0.205  -1.796   0.000  1.00  0.00     0.305 C 
ATOM      4  O   UNL     1       1.410  -2.689   0.000  1.00  0.00    -0.252 OA
BRANCH   3   5
ATOM      5  O   UNL     1      -1.171  -2.392   0.000  1.00  0.00    -0.469 OA
ATOM      6  C   UNL     1      -1.343  -3.882   0.000  1.00  0.00     0.282 C 
ENDBRANCH   3   5
ENDBRANCH   2   3
ENDBRANCH   1   2
BRANCH   1   7
ATOM      7  C   UNL     1       2.958  -0.603   0.000  1.00  0.00     0.067 C 
ATOM      8  C   UNL     1       3.852   0.602   0.000  1.00  0.00     0.024 C 
ATOM      9  C   UNL     1       2.064  -1.808   0.000  1.00  0.00     0.024 C 
BRANCH   7  10
ATOM     10  C   UNL     1       4.162  -1.497   0.000  1.00  0.00     0.311 C 
ATOM     11  O   UNL     1       5.539  -0.901   0.000  1.00  0.00    -0.252 OA
BRANCH  10  12
ATOM     12  O   UNL     1       3.991  -2.987   0.000  1.00  0.00    -0.469 OA
ATOM     13  C   UNL     1       5.195  -3.881   0.000  1.00  0.00     0.282 C 
ENDBRANCH  10  12
ENDBRANCH   7  10
ENDBRANCH   1   7
BRANCH   1  14
ATOM     14  C   UNL     1       1.925   1.781   0.000  1.00  0.00     0.048 C 
ATOM     15  C   UNL     1       2.403   3.203   0.000  1.00  0.00     0.163 C 
ATOM     16  C   UNL     1       0.425   1.796   0.000  1.00  0.00     0.026 C 
ATOM     17  C   UNL     1       1.198   4.096   0.000  1.00  0.00     0.048 C 
ATOM     18  C   UNL     1      -0.024   3.227   0.000  1.00  0.00    -0.058 C 
ATOM     19  C   UNL     1       0.874   0.365   0.000  1.00  0.00     0.018 C 
ATOM     20  C   UNL     1      -1.075   1.811   0.000  1.00  0.00    -0.042 C 
ATOM     21  C   UNL     1      -0.348  -0.505   0.000  1.00  0.00     0.017 C 
ATOM     22  C   UNL     1      -1.553   0.389   0.000  1.00  0.00     0.031 C 
ATOM     23  C   UNL     1      -2.067   2.936   0.000  1.00  0.00     0.094 C 
ATOM     24  C   UNL     1      -3.023   0.092   0.000  1.00  0.00     0.220 C 
ATOM     25  C   UNL     1      -3.538   2.639   0.000  1.00  0.00     0.331 C 
ATOM     26  O   UNL     1      -4.016   1.217   0.000  1.00  0.00    -0.453 OA
ATOM     27  C   UNL     1       3.389   1.454   0.000  1.00  0.00     0.022 C 
ATOM     28  O   UNL     1       3.834   3.652   0.000  1.00  0.00    -0.294 OA
ATOM     29  C   UNL     1      -1.446   3.705   0.000  1.00  0.00     0.040 C 
ATOM     30  C   UNL     1      -1.879  -1.075   0.000  1.00  0.00     0.020 C 
ATOM     31  O   UNL     1      -4.530   3.763   0.000  1.00  0.00    -0.247 OA
BRANCH  24  32
ATOM     32  C   UNL     1      -3.501  -1.330   0.000  1.00  0.00     0.032 A 
ATOM     33  C   UNL     1      -2.631  -2.552   0.000  1.00  0.00     0.202 A 
ATOM     34  C   UNL     1      -4.932  -1.779   0.000  1.00  0.00     0.049 A 
ATOM     35  O   UNL     1      -3.525  -3.757   0.000  1.00  0.00    -0.472 OA
ATOM     36  C   UNL     1      -4.947  -3.279   0.000  1.00  0.00     0.195 A 
ENDBRANCH  24  32
ENDBRANCH   1  14
TORSDOF 8
