REMARK SMILES O=C1c2ccccc2-c2c3c(cc4ccnc1c24)OCO3
REMARK SMILES IDX 1 1 2 2 3 3 4 4 5 5 6 6 7 7 8 8 9 9 18 10 17 11 16 12 15 13
REMARK SMILES IDX 14 14 13 15 12 16 11 17 10 18 21 19 20 20 19 21
REMARK H PARENT
ROOT
ATOM      1  O   UNL     1       3.329  -2.252   0.000  1.00  0.00    -0.287 OA
ATOM      2  C   UNL     1       2.120  -1.364   0.000  1.00  0.00     0.212 C 
ATOM      3  C   UNL     1       2.285   0.127   0.000  1.00  0.00     0.032 A 
ATOM      4  C   UNL     1       3.658   0.730   0.000  1.00  0.00     0.013 A 
ATOM      5  C   UNL     1       3.822   2.221   0.000  1.00  0.00     0.001 A 
ATOM      6  C   UNL     1       2.613   3.109   0.000  1.00  0.00     0.001 A 
ATOM      7  C   UNL     1       1.240   2.506   0.000  1.00  0.00     0.009 A 
ATOM      8  C   UNL     1       1.076   1.015   0.000  1.00  0.00    -0.003 A 
ATOM      9  C   UNL     1      -0.298   0.411   0.000  1.00  0.00     0.039 A 
ATOM     10  C   UNL     1      -0.462  -1.079   0.000  1.00  0.00     0.023 A 
ATOM     11  C   UNL     1       0.747  -1.967   0.000  1.00  0.00     0.119 A 
ATOM     12  N   UNL     1       0.583  -3.458   0.000  1.00  0.00    -0.252 NA
ATOM     13  C   UNL     1      -0.791  -4.061   0.000  1.00  0.00     0.112 A 
ATOM     14  C   UNL     1      -2.000  -3.174   0.000  1.00  0.00     0.029 A 
ATOM     15  C   UNL     1      -1.835  -1.683   0.000  1.00  0.00    -0.010 A 
ATOM     16  C   UNL     1      -3.045  -0.795   0.000  1.00  0.00     0.059 A 
ATOM     17  C   UNL     1      -2.880   0.696   0.000  1.00  0.00     0.167 A 
ATOM     18  C   UNL     1      -1.507   1.299   0.000  1.00  0.00     0.174 A 
ATOM     19  O   UNL     1      -1.656   2.792   0.000  1.00  0.00    -0.453 OA
ATOM     20  C   UNL     1      -3.122   3.111   0.000  1.00  0.00     0.468 C 
ATOM     21  O   UNL     1      -3.878   1.816   0.000  1.00  0.00    -0.454 OA
ENDROOT
TORSDOF 0
