REMARK SMILES COC(=O)C[C@H]1C(C)(C)[C@H](O)[C@@H]2CC3=C4CC(=O)O[C@@H](c5ccoc5)[C@]4(C)CC[C@@H]3[C@@]1(C)C2=O
REMARK SMILES IDX 5 1 3 2 4 3 2 4 1 5 6 6 7 7 31 8 10 9 30 10 33 11 12 12
REMARK SMILES IDX 29 13 14 14 13 15 28 16 15 17 26 18 16 19 20 20 17 21 19 22
REMARK SMILES IDX 8 23 9 24 32 25 34 26 27 27 18 28 11 29 21 31 25 32 22 33
REMARK SMILES IDX 24 34 23 35
REMARK H PARENT 11 30
ROOT
ATOM      1  C   UNL     1       4.072  -1.667   0.000  1.00  0.00     0.128 C 
ENDROOT
BRANCH   1   2
ATOM      2  C   UNL     1       3.198  -2.885   0.000  1.00  0.00     0.305 C 
ATOM      3  O   UNL     1       1.705  -2.737   0.000  1.00  0.00    -0.252 OA
BRANCH   2   4
ATOM      4  O   UNL     1       3.816  -4.252   0.000  1.00  0.00    -0.469 OA
ATOM      5  C   UNL     1       2.941  -5.471   0.000  1.00  0.00     0.282 C 
ENDBRANCH   2   4
ENDBRANCH   1   2
BRANCH   1   6
ATOM      6  C   UNL     1       3.454  -0.300   0.000  1.00  0.00     0.022 C 
ATOM      7  C   UNL     1       4.329   0.919   0.000  1.00  0.00    -0.004 C 
ATOM      8  C   UNL     1       1.961  -0.152   0.000  1.00  0.00     0.037 C 
ATOM      9  C   UNL     1       3.710   2.285   0.000  1.00  0.00     0.131 C 
ATOM     10  C   UNL     1       0.469  -0.004   0.000  1.00  0.00     0.029 C 
ATOM     11  C   UNL     1       2.836   1.067   0.000  1.00  0.00     0.145 C 
ATOM     12  C   UNL     1       2.218   2.433   0.000  1.00  0.00     0.090 C 
ATOM     13  C   UNL     1      -0.406  -1.223   0.000  1.00  0.00     0.010 C 
ATOM     14  C   UNL     1      -0.149   1.363   0.000  1.00  0.00    -0.065 C 
ATOM     15  C   UNL     1       0.725   2.581   0.000  1.00  0.00     0.045 C 
ATOM     16  C   UNL     1      -1.899  -1.075   0.000  1.00  0.00     0.016 C 
ATOM     17  C   UNL     1      -1.642   1.511   0.000  1.00  0.00    -0.050 C 
ATOM     18  C   UNL     1      -2.517   0.292   0.000  1.00  0.00     0.031 C 
ATOM     19  C   UNL     1      -2.260   2.877   0.000  1.00  0.00     0.154 C 
ATOM     20  C   UNL     1      -4.009   0.440   0.000  1.00  0.00     0.220 C 
ATOM     21  C   UNL     1      -3.753   3.025   0.000  1.00  0.00     0.310 C 
ATOM     22  O   UNL     1      -4.628   1.807   0.000  1.00  0.00    -0.456 OA
ATOM     23  C   UNL     1       5.377  -0.154   0.000  1.00  0.00     0.014 C 
ATOM     24  C   UNL     1       5.567   1.765   0.000  1.00  0.00     0.014 C 
ATOM     25  C   UNL     1       2.579  -1.519   0.000  1.00  0.00     0.020 C 
ATOM     26  O   UNL     1       3.625   1.182   0.000  1.00  0.00    -0.299 OA
ATOM     27  C   UNL     1      -3.391  -0.927   0.000  1.00  0.00     0.020 C 
ATOM     28  O   UNL     1      -4.371   4.392   0.000  1.00  0.00    -0.252 OA
BRANCH   9  29
ATOM     29  O   UNL     1       4.585   3.504   0.000  1.00  0.00    -0.392 OA
ATOM     30  H   UNL     1       0.000   0.000   0.000  1.00  0.00     0.211 HD
ENDBRANCH   9  29
BRANCH  20  31
ATOM     31  C   UNL     1      -4.884  -0.779   0.000  1.00  0.00     0.032 A 
ATOM     32  C   UNL     1      -4.412  -2.203   0.000  1.00  0.00     0.202 A 
ATOM     33  C   UNL     1      -6.384  -0.787   0.000  1.00  0.00     0.049 A 
ATOM     34  O   UNL     1      -5.620  -3.091   0.000  1.00  0.00    -0.472 OA
ATOM     35  C   UNL     1      -6.839  -2.217   0.000  1.00  0.00     0.195 A 
ENDBRANCH  20  31
ENDBRANCH   1   6
TORSDOF 5
