REMARK SMILES CC[C@H](CC[C@@H](C)[C@H]1CC[C@H]2[C@@H]3CC=C4C[C@@H](OC(=O)c5ccccc5)CC[C@]4(C)[C@H]3CC[C@]12C)C(C)C
REMARK SMILES IDX 5 1 4 2 3 3 2 4 1 5 36 6 37 7 38 8 6 9 7 10 8 11 9 12 34 13
REMARK SMILES IDX 10 14 33 15 11 16 32 17 12 18 31 19 13 20 29 21 14 22 28 23
REMARK SMILES IDX 15 24 27 25 16 26 17 27 35 28 30 29 18 30 19 31 20 32 21 33
REMARK SMILES IDX 22 34 26 35 23 36 25 37 24 38
REMARK H PARENT
ROOT
ATOM      1  C   UNL     1      -5.900  -0.152   0.000  1.00  0.00     0.004 C 
ENDROOT
BRANCH   1   2
ATOM      2  C   UNL     1      -7.264   0.472   0.000  1.00  0.00     0.004 C 
BRANCH   2   3
ATOM      3  C   UNL     1      -7.405   1.965   0.000  1.00  0.00    -0.009 C 
BRANCH   3   4
ATOM      4  C   UNL     1      -8.770   2.589   0.000  1.00  0.00     0.000 C 
ATOM      5  C   UNL     1      -8.911   4.082   0.000  1.00  0.00     0.004 C 
ENDBRANCH   3   4
BRANCH   3   6
ATOM      6  C   UNL     1      -6.183   2.834   0.000  1.00  0.00    -0.014 C 
ATOM      7  C   UNL     1      -6.325   4.328   0.000  1.00  0.00     0.007 C 
ATOM      8  C   UNL     1      -4.819   2.210   0.000  1.00  0.00     0.007 C 
ENDBRANCH   3   6
ENDBRANCH   2   3
ENDBRANCH   1   2
BRANCH   1   9
ATOM      9  C   UNL     1      -5.758  -1.645   0.000  1.00  0.00    -0.011 C 
ATOM     10  C   UNL     1      -6.981  -2.515   0.000  1.00  0.00     0.008 C 
BRANCH   9  11
ATOM     11  C   UNL     1      -4.394  -2.269   0.000  1.00  0.00    -0.002 C 
ATOM     12  C   UNL     1      -4.097  -3.740   0.000  1.00  0.00     0.005 C 
ATOM     13  C   UNL     1      -3.087  -1.533   0.000  1.00  0.00    -0.026 C 
ATOM     14  C   UNL     1      -2.607  -3.912   0.000  1.00  0.00     0.005 C 
ATOM     15  C   UNL     1      -2.761  -0.069   0.000  1.00  0.00     0.007 C 
ATOM     16  C   UNL     1      -1.983  -2.548   0.000  1.00  0.00    -0.001 C 
ATOM     17  C   UNL     1      -1.330   0.380   0.000  1.00  0.00     0.005 C 
ATOM     18  C   UNL     1      -0.552  -2.099   0.000  1.00  0.00     0.000 C 
ATOM     19  C   UNL     1      -0.225  -0.634   0.000  1.00  0.00     0.003 C 
ATOM     20  C   UNL     1       0.553  -3.114   0.000  1.00  0.00     0.031 C 
ATOM     21  C   UNL     1       1.206  -0.185   0.000  1.00  0.00    -0.008 C 
ATOM     22  C   UNL     1       1.984  -2.664   0.000  1.00  0.00    -0.027 C 
ATOM     23  C   UNL     1       1.533   1.278   0.000  1.00  0.00     0.015 C 
ATOM     24  C   UNL     1       2.311  -1.200   0.000  1.00  0.00    -0.064 C 
ATOM     25  C   UNL     1       2.964   1.728   0.000  1.00  0.00     0.046 C 
ATOM     26  C   UNL     1       3.742  -0.751   0.000  1.00  0.00     0.076 C 
ATOM     27  C   UNL     1       4.069   0.713   0.000  1.00  0.00     0.181 C 
ATOM     28  C   UNL     1      -4.292  -0.639   0.000  1.00  0.00     0.012 C 
ATOM     29  C   UNL     1       0.102   0.829   0.000  1.00  0.00     0.016 C 
BRANCH  27  30
ATOM     30  O   UNL     1       5.500   1.162   0.000  1.00  0.00    -0.458 OA
BRANCH  30  31
ATOM     31  C   UNL     1       6.604   0.147   0.000  1.00  0.00     0.338 C 
ATOM     32  O   UNL     1       6.277  -1.317   0.000  1.00  0.00    -0.246 OA
BRANCH  31  33
ATOM     33  C   UNL     1       8.035   0.596   0.000  1.00  0.00     0.060 A 
ATOM     34  C   UNL     1       9.140  -0.419   0.000  1.00  0.00     0.015 A 
ATOM     35  C   UNL     1       8.362   2.060   0.000  1.00  0.00     0.015 A 
ATOM     36  C   UNL     1      10.571   0.030   0.000  1.00  0.00     0.001 A 
ATOM     37  C   UNL     1       9.793   2.509   0.000  1.00  0.00     0.001 A 
ATOM     38  C   UNL     1      10.898   1.494   0.000  1.00  0.00     0.000 A 
ENDBRANCH  31  33
ENDBRANCH  30  31
ENDBRANCH  27  30
ENDBRANCH   9  11
ENDBRANCH   1   9
TORSDOF 9
