REMARK SMILES COCc1coc(-c2ccc3[nH]ccc3c2)c1
REMARK SMILES IDX 4 1 5 2 6 3 7 4 17 5 3 6 2 7 1 8 8 9 9 10 16 11 10 12 15 13
REMARK SMILES IDX 11 14 14 15 12 16 13 17
REMARK H PARENT 12 18
ROOT
ATOM      1  C   UNL     1       3.278   0.670   0.000  1.00  0.00     0.017 A 
ATOM      2  C   UNL     1       2.761   2.078   0.000  1.00  0.00     0.201 A 
ATOM      3  O   UNL     1       1.262   2.021   0.000  1.00  0.00    -0.464 OA
ATOM      4  C   UNL     1       0.853   0.578   0.000  1.00  0.00     0.134 A 
ATOM      5  C   UNL     1       2.099  -0.257   0.000  1.00  0.00     0.057 A 
ENDROOT
BRANCH   1   6
ATOM      6  C   UNL     1       4.721   0.260   0.000  1.00  0.00     0.198 C 
BRANCH   6   7
ATOM      7  O   UNL     1       5.088  -1.194   0.000  1.00  0.00    -0.380 OA
ATOM      8  C   UNL     1       6.531  -1.603   0.000  1.00  0.00     0.195 C 
ENDBRANCH   6   7
ENDBRANCH   1   6
BRANCH   4   9
ATOM      9  C   UNL     1      -0.555   0.061   0.000  1.00  0.00     0.018 A 
ATOM     10  C   UNL     1      -0.811  -1.417   0.000  1.00  0.00     0.014 A 
ATOM     11  C   UNL     1      -1.707   1.022   0.000  1.00  0.00     0.022 A 
ATOM     12  C   UNL     1      -2.220  -1.934   0.000  1.00  0.00     0.027 A 
ATOM     13  C   UNL     1      -3.115   0.505   0.000  1.00  0.00     0.000 A 
ATOM     14  C   UNL     1      -3.371  -0.973   0.000  1.00  0.00     0.045 A 
ATOM     15  C   UNL     1      -4.441   1.206   0.000  1.00  0.00     0.028 A 
ATOM     16  N   UNL     1      -4.856  -1.185   0.000  1.00  0.00    -0.361 N 
ATOM     17  C   UNL     1      -5.518   0.161   0.000  1.00  0.00     0.083 A 
ATOM     18  H   UNL     1       0.000   0.000   0.000  1.00  0.00     0.166 HD
ENDBRANCH   4   9
TORSDOF 3
