REMARK SMILES Oc1ccc(CC[C@@H]2CCC[C@H](c3ccc(O)cc3)O2)cc1
REMARK SMILES IDX 7 1 6 2 5 3 2 4 3 5 22 6 4 7 21 8 1 9 8 11 9 12 20 13 10 14
REMARK SMILES IDX 12 15 11 16 13 17 14 18 19 19 15 20 18 21 16 22 17 23
REMARK H PARENT 1 10 17 24
ROOT
ATOM      1  C   UNL     1       1.609   1.478   0.000  1.00  0.00     0.037 C 
ENDROOT
BRANCH   1   2
ATOM      2  C   UNL     1       2.014   0.034   0.000  1.00  0.00     0.038 C 
BRANCH   2   3
ATOM      3  C   UNL     1       3.467  -0.338   0.000  1.00  0.00    -0.048 A 
ATOM      4  C   UNL     1       6.374  -1.081   0.000  1.00  0.00     0.115 A 
ATOM      5  C   UNL     1       5.326  -2.154   0.000  1.00  0.00     0.046 A 
ATOM      6  C   UNL     1       5.969   0.364   0.000  1.00  0.00     0.046 A 
ATOM      7  C   UNL     1       3.873  -1.782   0.000  1.00  0.00     0.007 A 
ATOM      8  C   UNL     1       4.516   0.735   0.000  1.00  0.00     0.007 A 
BRANCH   4   9
ATOM      9  O   UNL     1       7.827  -1.452   0.000  1.00  0.00    -0.508 OA
ATOM     10  H   UNL     1       0.000   0.000   0.000  1.00  0.00     0.293 HD
ENDBRANCH   4   9
ENDBRANCH   2   3
ENDBRANCH   1   2
BRANCH   1  11
ATOM     11  C   UNL     1       0.156   1.849   0.000  1.00  0.00     0.119 C 
ATOM     12  C   UNL     1      -0.249   3.294   0.000  1.00  0.00     0.032 C 
ATOM     13  O   UNL     1      -0.892   0.777   0.000  1.00  0.00    -0.370 OA
ATOM     14  C   UNL     1      -1.702   3.665   0.000  1.00  0.00     0.006 C 
ATOM     15  C   UNL     1      -2.346   1.148   0.000  1.00  0.00     0.148 C 
ATOM     16  C   UNL     1      -2.751   2.592   0.000  1.00  0.00     0.037 C 
BRANCH  15  17
ATOM     17  C   UNL     1      -3.394   0.075   0.000  1.00  0.00    -0.019 A 
ATOM     18  C   UNL     1      -4.847   0.447   0.000  1.00  0.00     0.010 A 
ATOM     19  C   UNL     1      -2.989  -1.369   0.000  1.00  0.00     0.010 A 
ATOM     20  C   UNL     1      -5.896  -0.626   0.000  1.00  0.00     0.046 A 
ATOM     21  C   UNL     1      -4.037  -2.442   0.000  1.00  0.00     0.046 A 
ATOM     22  C   UNL     1      -5.491  -2.071   0.000  1.00  0.00     0.115 A 
BRANCH  22  23
ATOM     23  O   UNL     1      -6.539  -3.143   0.000  1.00  0.00    -0.508 OA
ATOM     24  H   UNL     1       0.000   0.000   0.000  1.00  0.00     0.293 HD
ENDBRANCH  22  23
ENDBRANCH  15  17
ENDBRANCH   1  11
TORSDOF 6
