REMARK SMILES COc1ccc(-c2cc(=O)c3ccc(O)cc3o2)cc1O
REMARK SMILES IDX 7 1 8 2 9 3 10 4 11 5 12 6 13 7 14 8 16 9 17 10 18 11 6 12
REMARK SMILES IDX 3 13 4 14 20 15 5 16 19 17 2 18 1 19 21 20 15 22
REMARK H PARENT 21 21 15 23
ROOT
ATOM      1  C   UNL     1      -0.017  -0.311   0.000  1.00  0.00     0.138 A 
ATOM      2  C   UNL     1       0.504  -1.718   0.000  1.00  0.00     0.100 A 
ATOM      3  C   UNL     1       1.982  -1.970   0.000  1.00  0.00     0.193 A 
ATOM      4  O   UNL     1       2.503  -3.377   0.000  1.00  0.00    -0.289 OA
ATOM      5  C   UNL     1       2.940  -0.816   0.000  1.00  0.00     0.065 A 
ATOM      6  C   UNL     1       4.419  -1.069   0.000  1.00  0.00     0.020 A 
ATOM      7  C   UNL     1       5.377   0.085   0.000  1.00  0.00     0.047 A 
ATOM      8  C   UNL     1       4.856   1.492   0.000  1.00  0.00     0.119 A 
ATOM      9  C   UNL     1       3.378   1.745   0.000  1.00  0.00     0.094 A 
ATOM     10  C   UNL     1       2.420   0.591   0.000  1.00  0.00     0.142 A 
ATOM     11  O   UNL     1       0.941   0.843   0.000  1.00  0.00    -0.456 OA
ENDROOT
BRANCH   1  12
ATOM     12  C   UNL     1      -1.496  -0.058   0.000  1.00  0.00     0.021 A 
ATOM     13  C   UNL     1      -4.453   0.447   0.000  1.00  0.00     0.160 A 
ATOM     14  C   UNL     1      -3.494   1.601   0.000  1.00  0.00     0.051 A 
ATOM     15  C   UNL     1      -3.932  -0.960   0.000  1.00  0.00     0.158 A 
ATOM     16  C   UNL     1      -2.016   1.349   0.000  1.00  0.00     0.016 A 
ATOM     17  C   UNL     1      -2.454  -1.212   0.000  1.00  0.00     0.062 A 
BRANCH  13  18
ATOM     18  O   UNL     1      -5.931   0.700   0.000  1.00  0.00    -0.493 OA
ATOM     19  C   UNL     1      -6.452   2.106   0.000  1.00  0.00     0.278 C 
ENDBRANCH  13  18
BRANCH  15  20
ATOM     20  O   UNL     1      -4.890  -2.114   0.000  1.00  0.00    -0.504 OA
ATOM     21  H   UNL     1       0.000   0.000   0.000  1.00  0.00     0.293 HD
ENDBRANCH  15  20
ENDBRANCH   1  12
BRANCH   8  22
ATOM     22  O   UNL     1       5.814   2.646   0.000  1.00  0.00    -0.508 OA
ATOM     23  H   UNL     1       0.000   0.000   0.000  1.00  0.00     0.293 HD
ENDBRANCH   8  22
TORSDOF 4
