REMARK SMILES Cc1cc(CCCc2cc3c(cc2O)OCO3)c(O)c(C)c1O
REMARK SMILES IDX 6 1 5 2 4 3 2 4 3 5 22 6 20 7 18 8 1 9 21 10 23 11 19 13
REMARK SMILES IDX 7 15 8 16 9 17 13 18 10 19 12 20 11 21 17 22 15 23 16 24
REMARK SMILES IDX 14 25
REMARK H PARENT 23 12 19 14 14 26
ROOT
ATOM      1  C   UNL     1       0.058   0.652   0.000  1.00  0.00     0.010 C 
ENDROOT
BRANCH   1   2
ATOM      2  C   UNL     1       1.361   1.395   0.000  1.00  0.00     0.040 C 
BRANCH   2   3
ATOM      3  C   UNL     1       2.656   0.639   0.000  1.00  0.00    -0.005 A 
ATOM      4  C   UNL     1       3.944  -1.618   0.000  1.00  0.00    -0.008 A 
ATOM      5  C   UNL     1       2.649  -0.861   0.000  1.00  0.00     0.014 A 
ATOM      6  C   UNL     1       5.247  -0.874   0.000  1.00  0.00     0.125 A 
ATOM      7  C   UNL     1       5.254   0.626   0.000  1.00  0.00     0.033 A 
ATOM      8  C   UNL     1       3.959   1.382   0.000  1.00  0.00     0.125 A 
ATOM      9  C   UNL     1       3.937  -3.118   0.000  1.00  0.00     0.048 C 
ATOM     10  C   UNL     1       6.557   1.369   0.000  1.00  0.00     0.052 C 
BRANCH   6  11
ATOM     11  O   UNL     1       6.542  -1.631   0.000  1.00  0.00    -0.507 OA
ATOM     12  H   UNL     1       0.000   0.000   0.000  1.00  0.00     0.293 HD
ENDBRANCH   6  11
BRANCH   8  13
ATOM     13  O   UNL     1       3.967   2.882   0.000  1.00  0.00    -0.507 OA
ATOM     14  H   UNL     1       0.000   0.000   0.000  1.00  0.00     0.293 HD
ENDBRANCH   8  13
ENDBRANCH   2   3
ENDBRANCH   1   2
BRANCH   1  15
ATOM     15  C   UNL     1      -1.237   1.408   0.000  1.00  0.00     0.040 C 
BRANCH  15  16
ATOM     16  C   UNL     1      -2.540   0.665   0.000  1.00  0.00    -0.002 A 
ATOM     17  C   UNL     1      -3.835   1.421   0.000  1.00  0.00     0.058 A 
ATOM     18  C   UNL     1      -2.547  -0.835   0.000  1.00  0.00     0.122 A 
ATOM     19  C   UNL     1      -5.138   0.678   0.000  1.00  0.00     0.166 A 
ATOM     20  C   UNL     1      -3.850  -1.579   0.000  1.00  0.00     0.097 A 
ATOM     21  C   UNL     1      -5.145  -0.822   0.000  1.00  0.00     0.169 A 
ATOM     22  O   UNL     1      -6.562   1.149   0.000  1.00  0.00    -0.454 OA
ATOM     23  O   UNL     1      -6.574  -1.278   0.000  1.00  0.00    -0.453 OA
ATOM     24  C   UNL     1      -7.450  -0.060   0.000  1.00  0.00     0.468 C 
BRANCH  18  25
ATOM     25  O   UNL     1      -1.252  -1.592   0.000  1.00  0.00    -0.508 OA
ATOM     26  H   UNL     1       0.000   0.000   0.000  1.00  0.00     0.293 HD
ENDBRANCH  18  25
ENDBRANCH  15  16
ENDBRANCH   1  15
TORSDOF 7
