REMARK SMILES CC(=O)OC(C)(C)[C@@H]1CC(=O)c2c(C)ccc(C)c2C1
REMARK SMILES IDX 4 1 2 2 1 3 3 4 5 5 6 6 7 7 8 8 9 9 20 10 10 11 19 12 12 13
REMARK SMILES IDX 17 14 13 15 16 16 15 17 11 18 18 19 14 20
REMARK H PARENT
ROOT
ATOM      1  O   UNL     1       3.816  -0.838   0.000  1.00  0.00    -0.460 OA
ENDROOT
BRANCH   1   2
ATOM      2  C   UNL     1       4.650   0.408   0.000  1.00  0.00     0.303 C 
ATOM      3  C   UNL     1       6.146   0.309   0.000  1.00  0.00     0.139 C 
ATOM      4  O   UNL     1       3.987   1.754   0.000  1.00  0.00    -0.253 OA
ENDBRANCH   1   2
BRANCH   1   5
ATOM      5  C   UNL     1       2.319  -0.739   0.000  1.00  0.00     0.110 C 
ATOM      6  C   UNL     1       2.418   0.757   0.000  1.00  0.00     0.057 C 
ATOM      7  C   UNL     1       2.220  -2.236   0.000  1.00  0.00     0.057 C 
BRANCH   5   8
ATOM      8  C   UNL     1       0.822  -0.640   0.000  1.00  0.00     0.045 C 
ATOM      9  C   UNL     1      -0.012  -1.887   0.000  1.00  0.00     0.089 C 
ATOM     10  C   UNL     1       0.159   0.706   0.000  1.00  0.00     0.044 C 
ATOM     11  C   UNL     1      -1.509  -1.788   0.000  1.00  0.00     0.163 C 
ATOM     12  C   UNL     1      -1.337   0.804   0.000  1.00  0.00    -0.034 A 
ATOM     13  C   UNL     1      -2.171  -0.442   0.000  1.00  0.00     0.024 A 
ATOM     14  C   UNL     1      -2.000   2.150   0.000  1.00  0.00    -0.047 A 
ATOM     15  C   UNL     1      -3.668  -0.343   0.000  1.00  0.00    -0.040 A 
ATOM     16  C   UNL     1      -3.497   2.249   0.000  1.00  0.00     0.004 A 
ATOM     17  C   UNL     1      -4.331   1.003   0.000  1.00  0.00     0.004 A 
ATOM     18  O   UNL     1      -2.343  -3.035   0.000  1.00  0.00    -0.294 OA
ATOM     19  C   UNL     1      -1.166   3.397   0.000  1.00  0.00     0.044 C 
ATOM     20  C   UNL     1      -4.502  -1.590   0.000  1.00  0.00     0.045 C 
ENDBRANCH   5   8
ENDBRANCH   1   5
TORSDOF 3
