REMARK SMILES COc1c2ccoc2nc2c(OC)cccc12
REMARK SMILES IDX 3 1 4 2 5 3 6 4 7 5 8 6 9 7 10 8 11 9 14 10 15 11 16 12
REMARK SMILES IDX 17 13 2 14 1 15 12 16 13 17
REMARK H PARENT
ROOT
ATOM      1  C   UNL     1      -1.185  -1.065   0.000  1.00  0.00     0.141 A 
ATOM      2  C   UNL     1      -1.972   0.213   0.000  1.00  0.00     0.083 A 
ATOM      3  C   UNL     1      -3.447   0.483   0.000  1.00  0.00     0.056 A 
ATOM      4  C   UNL     1      -3.646   1.969   0.000  1.00  0.00     0.198 A 
ATOM      5  O   UNL     1      -2.294   2.618   0.000  1.00  0.00    -0.446 OA
ATOM      6  C   UNL     1      -1.259   1.532   0.000  1.00  0.00     0.230 A 
ATOM      7  N   UNL     1       0.240   1.575   0.000  1.00  0.00    -0.208 NA
ATOM      8  C   UNL     1       1.027   0.298   0.000  1.00  0.00     0.120 A 
ATOM      9  C   UNL     1       2.526   0.340   0.000  1.00  0.00     0.145 A 
ATOM     10  C   UNL     1       3.313  -0.937   0.000  1.00  0.00     0.049 A 
ATOM     11  C   UNL     1       2.600  -2.257   0.000  1.00  0.00     0.005 A 
ATOM     12  C   UNL     1       1.101  -2.299   0.000  1.00  0.00     0.014 A 
ATOM     13  C   UNL     1       0.314  -1.022   0.000  1.00  0.00     0.047 A 
ENDROOT
BRANCH   1  14
ATOM     14  O   UNL     1      -1.898  -2.384   0.000  1.00  0.00    -0.495 OA
ATOM     15  C   UNL     1      -3.397  -2.427   0.000  1.00  0.00     0.278 C 
ENDBRANCH   1  14
BRANCH   9  16
ATOM     16  O   UNL     1       3.239   1.660   0.000  1.00  0.00    -0.494 OA
ATOM     17  C   UNL     1       4.739   1.703   0.000  1.00  0.00     0.278 C 
ENDBRANCH   9  16
TORSDOF 2
