REMARK SMILES C[C@@H]1OC(=O)[C@@H](CCCCCCCCCCCCCCCCCCCc2ccc3c(c2)OCO3)[C@H]1O
REMARK SMILES IDX 15 1 14 2 13 3 12 4 11 5 10 6 9 7 8 8 7 9 6 10 2 11 3 12
REMARK SMILES IDX 35 13 4 14 1 15 5 16 36 17 16 19 17 20 18 21 19 22 20 23
REMARK SMILES IDX 21 24 22 25 23 26 24 27 25 28 26 29 27 30 31 31 28 32 30 33
REMARK SMILES IDX 29 34 32 35 34 36 33 37
REMARK H PARENT 36 18
ROOT
ATOM      1  C   UNL     1       2.002   0.915   0.000  1.00  0.00     0.000 C 
ENDROOT
BRANCH   1   2
ATOM      2  C   UNL     1       3.300   0.163   0.000  1.00  0.00     0.000 C 
BRANCH   2   3
ATOM      3  C   UNL     1       4.600   0.911   0.000  1.00  0.00     0.000 C 
BRANCH   3   4
ATOM      4  C   UNL     1       5.898   0.160   0.000  1.00  0.00     0.000 C 
BRANCH   4   5
ATOM      5  C   UNL     1       7.198   0.908   0.000  1.00  0.00     0.000 C 
BRANCH   5   6
ATOM      6  C   UNL     1       8.496   0.156   0.000  1.00  0.00     0.000 C 
BRANCH   6   7
ATOM      7  C   UNL     1       9.796   0.904   0.000  1.00  0.00     0.000 C 
BRANCH   7   8
ATOM      8  C   UNL     1      11.094   0.153   0.000  1.00  0.00     0.001 C 
BRANCH   8   9
ATOM      9  C   UNL     1      12.394   0.901   0.000  1.00  0.00     0.018 C 
BRANCH   9  10
ATOM     10  C   UNL     1      13.692   0.149   0.000  1.00  0.00     0.131 C 
ATOM     11  C   UNL     1      15.314  -1.657   0.000  1.00  0.00     0.203 C 
ATOM     12  O   UNL     1      16.066  -0.359   0.000  1.00  0.00    -0.460 OA
ATOM     13  C   UNL     1      13.847  -1.343   0.000  1.00  0.00     0.169 C 
ATOM     14  C   UNL     1      15.063   0.757   0.000  1.00  0.00     0.312 C 
ATOM     15  C   UNL     1      15.922  -3.028   0.000  1.00  0.00     0.056 C 
ATOM     16  O   UNL     1      15.377   2.224   0.000  1.00  0.00    -0.252 OA
BRANCH  13  17
ATOM     17  O   UNL     1      12.731  -2.345   0.000  1.00  0.00    -0.388 OA
ATOM     18  H   UNL     1       0.000   0.000   0.000  1.00  0.00     0.211 HD
ENDBRANCH  13  17
ENDBRANCH   9  10
ENDBRANCH   8   9
ENDBRANCH   7   8
ENDBRANCH   6   7
ENDBRANCH   5   6
ENDBRANCH   4   5
ENDBRANCH   3   4
ENDBRANCH   2   3
ENDBRANCH   1   2
BRANCH   1  19
ATOM     19  C   UNL     1       0.702   0.167   0.000  1.00  0.00     0.000 C 
BRANCH  19  20
ATOM     20  C   UNL     1      -0.596   0.918   0.000  1.00  0.00     0.000 C 
BRANCH  20  21
ATOM     21  C   UNL     1      -1.896   0.170   0.000  1.00  0.00     0.000 C 
BRANCH  21  22
ATOM     22  C   UNL     1      -3.194   0.922   0.000  1.00  0.00     0.000 C 
BRANCH  22  23
ATOM     23  C   UNL     1      -4.494   0.174   0.000  1.00  0.00     0.000 C 
BRANCH  23  24
ATOM     24  C   UNL     1      -5.792   0.925   0.000  1.00  0.00     0.000 C 
BRANCH  24  25
ATOM     25  C   UNL     1      -7.092   0.177   0.000  1.00  0.00     0.000 C 
BRANCH  25  26
ATOM     26  C   UNL     1      -8.390   0.929   0.000  1.00  0.00     0.000 C 
BRANCH  26  27
ATOM     27  C   UNL     1      -9.691   0.180   0.000  1.00  0.00     0.005 C 
BRANCH  27  28
ATOM     28  C   UNL     1     -10.989   0.932   0.000  1.00  0.00     0.035 C 
BRANCH  28  29
ATOM     29  C   UNL     1     -12.289   0.184   0.000  1.00  0.00    -0.044 A 
ATOM     30  C   UNL     1     -12.291  -1.316   0.000  1.00  0.00     0.008 A 
ATOM     31  C   UNL     1     -13.587   0.936   0.000  1.00  0.00     0.054 A 
ATOM     32  C   UNL     1     -13.591  -2.064   0.000  1.00  0.00     0.051 A 
ATOM     33  C   UNL     1     -14.887   0.188   0.000  1.00  0.00     0.166 A 
ATOM     34  C   UNL     1     -14.889  -1.312   0.000  1.00  0.00     0.165 A 
ATOM     35  O   UNL     1     -16.313   0.653   0.000  1.00  0.00    -0.454 OA
ATOM     36  O   UNL     1     -16.316  -1.774   0.000  1.00  0.00    -0.454 OA
ATOM     37  C   UNL     1     -17.196  -0.559   0.000  1.00  0.00     0.468 C 
ENDBRANCH  28  29
ENDBRANCH  27  28
ENDBRANCH  26  27
ENDBRANCH  25  26
ENDBRANCH  24  25
ENDBRANCH  23  24
ENDBRANCH  22  23
ENDBRANCH  21  22
ENDBRANCH  20  21
ENDBRANCH  19  20
ENDBRANCH   1  19
TORSDOF 21
