REMARK SMILES COc1cc([C@H]2CC(=O)c3c(O)c(C)c(OC(C)=O)c(C)c3O2)ccc1OC(C)=O
REMARK SMILES IDX 6 1 7 2 8 3 9 4 10 5 11 6 13 7 14 8 15 9 20 10 21 11 22 12
REMARK SMILES IDX 23 13 5 14 3 15 4 16 26 17 25 18 24 19 2 20 1 21 27 22 28 23
REMARK SMILES IDX 29 24 30 25 12 26 16 28 17 29 18 30 19 31
REMARK H PARENT 12 27
ROOT
ATOM      1  C   UNL     1      -0.750  -0.667   0.000  1.00  0.00     0.211 C 
ATOM      2  C   UNL     1      -0.321  -2.105   0.000  1.00  0.00     0.131 C 
ATOM      3  C   UNL     1       1.138  -2.452   0.000  1.00  0.00     0.174 C 
ATOM      4  O   UNL     1       1.567  -3.890   0.000  1.00  0.00    -0.294 OA
ATOM      5  C   UNL     1       2.168  -1.362   0.000  1.00  0.00     0.102 A 
ATOM      6  C   UNL     1       3.628  -1.710   0.000  1.00  0.00     0.136 A 
ATOM      7  C   UNL     1       4.658  -0.620   0.000  1.00  0.00     0.035 A 
ATOM      8  C   UNL     1       6.117  -0.967   0.000  1.00  0.00     0.052 C 
ATOM      9  C   UNL     1       4.229   0.818   0.000  1.00  0.00     0.144 A 
ATOM     10  C   UNL     1       2.770   1.165   0.000  1.00  0.00     0.035 A 
ATOM     11  C   UNL     1       2.342   2.603   0.000  1.00  0.00     0.052 C 
ATOM     12  C   UNL     1       1.740   0.075   0.000  1.00  0.00     0.141 A 
ATOM     13  O   UNL     1       0.281   0.423   0.000  1.00  0.00    -0.484 OA
ENDROOT
BRANCH   1  14
ATOM     14  C   UNL     1      -2.209  -0.320   0.000  1.00  0.00    -0.003 A 
ATOM     15  C   UNL     1      -4.097   1.465   0.000  1.00  0.00     0.161 A 
ATOM     16  C   UNL     1      -2.638   1.118   0.000  1.00  0.00     0.058 A 
ATOM     17  C   UNL     1      -5.128   0.376   0.000  1.00  0.00     0.172 A 
ATOM     18  C   UNL     1      -4.699  -1.062   0.000  1.00  0.00     0.052 A 
ATOM     19  C   UNL     1      -3.240  -1.409   0.000  1.00  0.00     0.012 A 
BRANCH  15  20
ATOM     20  O   UNL     1      -4.526   2.903   0.000  1.00  0.00    -0.493 OA
ATOM     21  C   UNL     1      -3.495   3.993   0.000  1.00  0.00     0.278 C 
ENDBRANCH  15  20
BRANCH  17  22
ATOM     22  O   UNL     1      -6.587   0.723   0.000  1.00  0.00    -0.423 OA
BRANCH  22  23
ATOM     23  C   UNL     1      -7.617  -0.367   0.000  1.00  0.00     0.308 C 
ATOM     24  C   UNL     1      -9.076  -0.019   0.000  1.00  0.00     0.139 C 
ATOM     25  O   UNL     1      -7.189  -1.804   0.000  1.00  0.00    -0.252 OA
ENDBRANCH  22  23
ENDBRANCH  17  22
ENDBRANCH   1  14
BRANCH   6  26
ATOM     26  O   UNL     1       4.056  -3.147   0.000  1.00  0.00    -0.507 OA
ATOM     27  H   UNL     1       0.000   0.000   0.000  1.00  0.00     0.293 HD
ENDBRANCH   6  26
BRANCH   9  28
ATOM     28  O   UNL     1       5.260   1.908   0.000  1.00  0.00    -0.426 OA
BRANCH  28  29
ATOM     29  C   UNL     1       6.719   1.560   0.000  1.00  0.00     0.308 C 
ATOM     30  C   UNL     1       7.750   2.650   0.000  1.00  0.00     0.139 C 
ATOM     31  O   UNL     1       7.148   0.123   0.000  1.00  0.00    -0.252 OA
ENDBRANCH  28  29
ENDBRANCH   9  28
TORSDOF 7
