REMARK SMILES O=C1CC[C@@H](O)c2cccc(O)c21
REMARK SMILES IDX 1 1 2 2 3 3 4 4 5 5 7 6 8 7 9 8 10 9 11 10 13 11 12 12 6 14
REMARK H PARENT 12 13 6 15
ROOT
ATOM      1  O   UNL     1       1.110   2.806   0.000  1.00  0.00    -0.294 OA
ATOM      2  C   UNL     1       0.050   1.745   0.000  1.00  0.00     0.167 C 
ATOM      3  C   UNL     1      -1.399   2.134   0.000  1.00  0.00     0.084 C 
ATOM      4  C   UNL     1      -2.460   1.073   0.000  1.00  0.00     0.045 C 
ATOM      5  C   UNL     1      -2.072  -0.376   0.000  1.00  0.00     0.146 C 
ATOM      6  C   UNL     1      -0.623  -0.764   0.000  1.00  0.00    -0.005 A 
ATOM      7  C   UNL     1      -0.235  -2.213   0.000  1.00  0.00     0.007 A 
ATOM      8  C   UNL     1       1.214  -2.601   0.000  1.00  0.00     0.004 A 
ATOM      9  C   UNL     1       2.275  -1.541   0.000  1.00  0.00     0.047 A 
ATOM     10  C   UNL     1       1.887  -0.092   0.000  1.00  0.00     0.126 A 
ATOM     11  C   UNL     1       0.438   0.296   0.000  1.00  0.00     0.065 A 
ENDROOT
BRANCH  10  12
ATOM     12  O   UNL     1       2.947   0.969   0.000  1.00  0.00    -0.507 OA
ATOM     13  H   UNL     1       0.000   0.000   0.000  1.00  0.00     0.293 HD
ENDBRANCH  10  12
BRANCH   5  14
ATOM     14  O   UNL     1      -3.132  -1.437   0.000  1.00  0.00    -0.388 OA
ATOM     15  H   UNL     1       0.000   0.000   0.000  1.00  0.00     0.211 HD
ENDBRANCH   5  14
TORSDOF 2
