REMARK SMILES CC(C)OC(=O)c1cc(O)c(O)c(O)c1
REMARK SMILES IDX 5 1 6 2 4 3 2 4 1 5 3 6 7 7 8 8 15 9 9 10 13 11 11 12 10 13
REMARK SMILES IDX 14 15 12 17
REMARK H PARENT 10 14 14 16 12 18
ROOT
ATOM      1  C   UNL     1      -1.483  -0.519   0.000  1.00  0.00     0.338 C 
ATOM      2  O   UNL     1      -2.002  -1.927   0.000  1.00  0.00    -0.246 OA
ENDROOT
BRANCH   1   3
ATOM      3  O   UNL     1      -2.443   0.633   0.000  1.00  0.00    -0.459 OA
BRANCH   3   4
ATOM      4  C   UNL     1      -3.921   0.379   0.000  1.00  0.00     0.170 C 
ATOM      5  C   UNL     1      -4.881   1.532   0.000  1.00  0.00     0.052 C 
ATOM      6  C   UNL     1      -4.440  -1.029   0.000  1.00  0.00     0.052 C 
ENDBRANCH   3   4
ENDBRANCH   1   3
BRANCH   1   7
ATOM      7  C   UNL     1      -0.005  -0.265   0.000  1.00  0.00     0.067 A 
ATOM      8  C   UNL     1       0.513   1.143   0.000  1.00  0.00     0.066 A 
ATOM      9  C   UNL     1       0.955  -1.417   0.000  1.00  0.00     0.066 A 
ATOM     10  C   UNL     1       1.992   1.398   0.000  1.00  0.00     0.162 A 
ATOM     11  C   UNL     1       2.433  -1.163   0.000  1.00  0.00     0.162 A 
ATOM     12  C   UNL     1       2.951   0.245   0.000  1.00  0.00     0.200 A 
BRANCH  10  13
ATOM     13  O   UNL     1       2.510   2.805   0.000  1.00  0.00    -0.504 OA
ATOM     14  H   UNL     1       0.000   0.000   0.000  1.00  0.00     0.293 HD
ENDBRANCH  10  13
BRANCH  11  15
ATOM     15  O   UNL     1       3.393  -2.315   0.000  1.00  0.00    -0.504 OA
ATOM     16  H   UNL     1       0.000   0.000   0.000  1.00  0.00     0.293 HD
ENDBRANCH  11  15
BRANCH  12  17
ATOM     17  O   UNL     1       4.429   0.500   0.000  1.00  0.00    -0.502 OA
ATOM     18  H   UNL     1       0.000   0.000   0.000  1.00  0.00     0.293 HD
ENDBRANCH  12  17
ENDBRANCH   1   7
TORSDOF 6
