REMARK SMILES COc1ccc(C[C@@H](CO)[C@H](CO)Cc2ccc(OC)c(OC)c2)cc1OC
REMARK SMILES IDX 8 1 7 2 6 3 3 4 4 5 26 6 5 7 25 8 2 9 1 10 27 11 28 12 9 13
REMARK SMILES IDX 10 14 11 16 12 17 13 18 14 20 15 21 16 22 24 23 17 24 21 25
REMARK SMILES IDX 18 26 22 27 23 28 19 29 20 30
REMARK H PARENT 10 15 13 19
ROOT
ATOM      1  C   UNL     1      -0.915  -0.036   0.000  1.00  0.00     0.025 C 
ENDROOT
BRANCH   1   2
ATOM      2  C   UNL     1      -1.840   1.145   0.000  1.00  0.00     0.042 C 
BRANCH   2   3
ATOM      3  C   UNL     1      -3.325   0.934   0.000  1.00  0.00    -0.044 A 
ATOM      4  C   UNL     1      -6.295   0.512   0.000  1.00  0.00     0.160 A 
ATOM      5  C   UNL     1      -5.735   1.904   0.000  1.00  0.00     0.051 A 
ATOM      6  C   UNL     1      -5.370  -0.668   0.000  1.00  0.00     0.160 A 
ATOM      7  C   UNL     1      -4.250   2.115   0.000  1.00  0.00     0.008 A 
ATOM      8  C   UNL     1      -3.885  -0.458   0.000  1.00  0.00     0.054 A 
BRANCH   4   9
ATOM      9  O   UNL     1      -7.780   0.302   0.000  1.00  0.00    -0.493 OA
ATOM     10  C   UNL     1      -8.705   1.482   0.000  1.00  0.00     0.278 C 
ENDBRANCH   4   9
BRANCH   6  11
ATOM     11  O   UNL     1      -5.930  -2.060   0.000  1.00  0.00    -0.493 OA
ATOM     12  C   UNL     1      -5.005  -3.241   0.000  1.00  0.00     0.278 C 
ENDBRANCH   6  11
ENDBRANCH   2   3
ENDBRANCH   1   2
BRANCH   1  13
ATOM     13  C   UNL     1      -1.475  -1.428   0.000  1.00  0.00     0.160 C 
BRANCH  13  14
ATOM     14  O   UNL     1      -0.550  -2.608   0.000  1.00  0.00    -0.396 OA
ATOM     15  H   UNL     1       0.000   0.000   0.000  1.00  0.00     0.210 HD
ENDBRANCH  13  14
ENDBRANCH   1  13
BRANCH   1  16
ATOM     16  C   UNL     1       0.570   0.175   0.000  1.00  0.00     0.025 C 
BRANCH  16  17
ATOM     17  C   UNL     1       1.130   1.566   0.000  1.00  0.00     0.160 C 
BRANCH  17  18
ATOM     18  O   UNL     1       2.615   1.777   0.000  1.00  0.00    -0.396 OA
ATOM     19  H   UNL     1       0.000   0.000   0.000  1.00  0.00     0.210 HD
ENDBRANCH  17  18
ENDBRANCH  16  17
BRANCH  16  20
ATOM     20  C   UNL     1       1.496  -1.006   0.000  1.00  0.00     0.042 C 
BRANCH  20  21
ATOM     21  C   UNL     1       2.981  -0.795   0.000  1.00  0.00    -0.044 A 
ATOM     22  C   UNL     1       3.906  -1.976   0.000  1.00  0.00     0.008 A 
ATOM     23  C   UNL     1       3.541   0.596   0.000  1.00  0.00     0.054 A 
ATOM     24  C   UNL     1       5.391  -1.765   0.000  1.00  0.00     0.051 A 
ATOM     25  C   UNL     1       5.026   0.807   0.000  1.00  0.00     0.160 A 
ATOM     26  C   UNL     1       5.951  -0.374   0.000  1.00  0.00     0.160 A 
BRANCH  25  27
ATOM     27  O   UNL     1       5.586   2.199   0.000  1.00  0.00    -0.493 OA
ATOM     28  C   UNL     1       7.071   2.409   0.000  1.00  0.00     0.278 C 
ENDBRANCH  25  27
BRANCH  26  29
ATOM     29  O   UNL     1       7.436  -0.163   0.000  1.00  0.00    -0.493 OA
ATOM     30  C   UNL     1       8.361  -1.344   0.000  1.00  0.00     0.278 C 
ENDBRANCH  26  29
ENDBRANCH  20  21
ENDBRANCH  16  20
ENDBRANCH   1  16
TORSDOF 13
