REMARK SMILES COc1cc(OC)c2nc3occc3c(OC)c2c1
REMARK SMILES IDX 3 1 4 2 5 3 8 4 9 5 10 6 11 7 12 8 13 9 14 10 15 11 18 12
REMARK SMILES IDX 19 13 2 14 1 15 6 16 7 17 16 18 17 19
REMARK H PARENT
ROOT
ATOM      1  C   UNL     1       2.592   0.885   0.000  1.00  0.00     0.123 A 
ATOM      2  C   UNL     1       2.736  -0.608   0.000  1.00  0.00     0.095 A 
ATOM      3  C   UNL     1       1.515  -1.480   0.000  1.00  0.00     0.149 A 
ATOM      4  C   UNL     1       0.150  -0.858   0.000  1.00  0.00     0.120 A 
ATOM      5  N   UNL     1      -1.071  -1.729   0.000  1.00  0.00    -0.208 NA
ATOM      6  C   UNL     1      -2.436  -1.108   0.000  1.00  0.00     0.230 A 
ATOM      7  O   UNL     1      -3.812  -1.706   0.000  1.00  0.00    -0.446 OA
ATOM      8  C   UNL     1      -4.806  -0.583   0.000  1.00  0.00     0.198 A 
ATOM      9  C   UNL     1      -4.045   0.710   0.000  1.00  0.00     0.056 A 
ATOM     10  C   UNL     1      -2.580   0.385   0.000  1.00  0.00     0.083 A 
ATOM     11  C   UNL     1      -1.359   1.257   0.000  1.00  0.00     0.141 A 
ATOM     12  C   UNL     1       0.006   0.635   0.000  1.00  0.00     0.051 A 
ATOM     13  C   UNL     1       1.226   1.506   0.000  1.00  0.00     0.061 A 
ENDROOT
BRANCH   1  14
ATOM     14  O   UNL     1       3.813   1.756   0.000  1.00  0.00    -0.497 OA
ATOM     15  C   UNL     1       5.178   1.134   0.000  1.00  0.00     0.278 C 
ENDBRANCH   1  14
BRANCH   3  16
ATOM     16  O   UNL     1       1.659  -2.973   0.000  1.00  0.00    -0.494 OA
ATOM     17  C   UNL     1       3.024  -3.595   0.000  1.00  0.00     0.278 C 
ENDBRANCH   3  16
BRANCH  11  18
ATOM     18  O   UNL     1      -1.504   2.750   0.000  1.00  0.00    -0.495 OA
ATOM     19  C   UNL     1      -0.283   3.621   0.000  1.00  0.00     0.278 C 
ENDBRANCH  11  18
TORSDOF 3
