REMARK SMILES COC(=O)CCCCCCCCCc1ccccc1
REMARK SMILES IDX 8 1 7 2 6 3 5 4 3 5 4 6 2 7 1 8 9 9 10 10 11 11 12 12 13 13
REMARK SMILES IDX 14 14 15 15 19 16 16 17 18 18 17 19
REMARK H PARENT
ROOT
ATOM      1  C   UNL     1      -2.189   0.018   0.000  1.00  0.00     0.000 C 
ENDROOT
BRANCH   1   2
ATOM      2  C   UNL     1      -3.520  -0.673   0.000  1.00  0.00     0.001 C 
BRANCH   2   3
ATOM      3  C   UNL     1      -4.785   0.134   0.000  1.00  0.00     0.012 C 
BRANCH   3   4
ATOM      4  C   UNL     1      -6.116  -0.558   0.000  1.00  0.00     0.123 C 
BRANCH   4   5
ATOM      5  C   UNL     1      -7.380   0.249   0.000  1.00  0.00     0.305 C 
ATOM      6  O   UNL     1      -7.314   1.748   0.000  1.00  0.00    -0.252 OA
BRANCH   5   7
ATOM      7  O   UNL     1      -8.711  -0.442   0.000  1.00  0.00    -0.469 OA
ATOM      8  C   UNL     1      -9.976   0.365   0.000  1.00  0.00     0.282 C 
ENDBRANCH   5   7
ENDBRANCH   4   5
ENDBRANCH   3   4
ENDBRANCH   2   3
ENDBRANCH   1   2
BRANCH   1   9
ATOM      9  C   UNL     1      -0.925  -0.789   0.000  1.00  0.00     0.000 C 
BRANCH   9  10
ATOM     10  C   UNL     1       0.406  -0.097   0.000  1.00  0.00     0.000 C 
BRANCH  10  11
ATOM     11  C   UNL     1       1.671  -0.904   0.000  1.00  0.00     0.000 C 
BRANCH  11  12
ATOM     12  C   UNL     1       3.002  -0.212   0.000  1.00  0.00     0.005 C 
BRANCH  12  13
ATOM     13  C   UNL     1       4.266  -1.020   0.000  1.00  0.00     0.035 C 
BRANCH  13  14
ATOM     14  C   UNL     1       5.597  -0.328   0.000  1.00  0.00    -0.048 A 
ATOM     15  C   UNL     1       5.664   1.171   0.000  1.00  0.00     0.004 A 
ATOM     16  C   UNL     1       6.862  -1.135   0.000  1.00  0.00     0.004 A 
ATOM     17  C   UNL     1       6.995   1.862   0.000  1.00  0.00     0.000 A 
ATOM     18  C   UNL     1       8.193  -0.443   0.000  1.00  0.00     0.000 A 
ATOM     19  C   UNL     1       8.259   1.055   0.000  1.00  0.00     0.000 A 
ENDBRANCH  13  14
ENDBRANCH  12  13
ENDBRANCH  11  12
ENDBRANCH  10  11
ENDBRANCH   9  10
ENDBRANCH   1   9
TORSDOF 11
