REMARK SMILES CC1=CCC[C@H](C)[C@@]12CC[C@@H](C(C)(C)O)C2
REMARK SMILES IDX 12 1 13 2 14 3 11 4 2 5 3 6 8 7 4 8 6 9 9 10 16 11 5 12
REMARK SMILES IDX 10 13 1 14 7 15 15 16
REMARK H PARENT 15 17
ROOT
ATOM      1  C   UNL     1      -2.968   0.089   0.000  1.00  0.00     0.062 C 
ATOM      2  C   UNL     1      -3.344  -1.363   0.000  1.00  0.00     0.042 C 
ATOM      3  C   UNL     1      -2.591   1.541   0.000  1.00  0.00     0.042 C 
ENDROOT
BRANCH   1   4
ATOM      4  C   UNL     1      -1.516  -0.287   0.000  1.00  0.00     0.021 C 
ATOM      5  C   UNL     1       1.130   1.342   0.000  1.00  0.00    -0.071 C 
ATOM      6  C   UNL     1       2.526   1.891   0.000  1.00  0.00    -0.027 C 
ATOM      7  C   UNL     1       0.907  -0.141   0.000  1.00  0.00    -0.006 C 
ATOM      8  C   UNL     1       3.699   0.956   0.000  1.00  0.00     0.027 C 
ATOM      9  C   UNL     1       2.080  -1.076   0.000  1.00  0.00    -0.004 C 
ATOM     10  C   UNL     1       0.530  -1.593   0.000  1.00  0.00     0.012 C 
ATOM     11  C   UNL     1      -0.357   0.666   0.000  1.00  0.00     0.018 C 
ATOM     12  C   UNL     1       3.476  -0.527   0.000  1.00  0.00     0.008 C 
ATOM     13  C   UNL     1      -0.967  -1.683   0.000  1.00  0.00     0.007 C 
ATOM     14  C   UNL     1      -0.043   2.277   0.000  1.00  0.00     0.040 C 
ATOM     15  C   UNL     1       1.857  -2.559   0.000  1.00  0.00     0.008 C 
ENDBRANCH   1   4
BRANCH   1  16
ATOM     16  O   UNL     1      -4.420   0.466   0.000  1.00  0.00    -0.390 OA
ATOM     17  H   UNL     1       0.000   0.000   0.000  1.00  0.00     0.211 HD
ENDBRANCH   1  16
TORSDOF 2
