REMARK SMILES COc1cc(C=CC(=O)O)cc(OC)c1O
REMARK SMILES IDX 6 1 5 2 3 3 4 4 15 5 12 6 11 7 2 8 1 9 16 10 13 12 14 13
REMARK SMILES IDX 7 14 8 15 9 16 10 17
REMARK H PARENT 16 11 10 18
ROOT
ATOM      1  C   UNL     1      -1.797  -0.868   0.000  1.00  0.00     0.016 C 
ENDROOT
BRANCH   1   2
ATOM      2  C   UNL     1      -0.358  -0.444   0.000  1.00  0.00    -0.018 A 
ATOM      3  C   UNL     1       2.168  -1.054   0.000  1.00  0.00     0.165 A 
ATOM      4  C   UNL     1       0.729  -1.478   0.000  1.00  0.00     0.058 A 
ATOM      5  C   UNL     1       2.520   0.404   0.000  1.00  0.00     0.200 A 
ATOM      6  C   UNL     1       1.433   1.438   0.000  1.00  0.00     0.165 A 
ATOM      7  C   UNL     1      -0.006   1.014   0.000  1.00  0.00     0.058 A 
BRANCH   3   8
ATOM      8  O   UNL     1       3.254  -2.088   0.000  1.00  0.00    -0.493 OA
ATOM      9  C   UNL     1       2.902  -3.546   0.000  1.00  0.00     0.278 C 
ENDBRANCH   3   8
BRANCH   5  10
ATOM     10  O   UNL     1       3.959   0.828   0.000  1.00  0.00    -0.502 OA
ATOM     11  H   UNL     1       0.000   0.000   0.000  1.00  0.00     0.293 HD
ENDBRANCH   5  10
BRANCH   6  12
ATOM     12  O   UNL     1       1.785   2.896   0.000  1.00  0.00    -0.493 OA
ATOM     13  C   UNL     1       0.699   3.930   0.000  1.00  0.00     0.278 C 
ENDBRANCH   6  12
ENDBRANCH   1   2
BRANCH   1  14
ATOM     14  C   UNL     1      -2.883   0.166   0.000  1.00  0.00     0.094 C 
BRANCH  14  15
ATOM     15  C   UNL     1      -4.322  -0.258   0.000  1.00  0.00     0.328 C 
ATOM     16  O   UNL     1      -4.674  -1.716   0.000  1.00  0.00    -0.247 OA
BRANCH  15  17
ATOM     17  O   UNL     1      -5.409   0.776   0.000  1.00  0.00    -0.478 OA
ATOM     18  H   UNL     1       0.000   0.000   0.000  1.00  0.00     0.297 HD
ENDBRANCH  15  17
ENDBRANCH  14  15
ENDBRANCH   1  14
TORSDOF 7
