REMARK SMILES C=CCOc1c(OC)cc2c(c1OC)O[C@H](c1cc(OC)c(OC)c(OC)c1)[C@H]2C
REMARK SMILES IDX 5 1 6 2 9 3 10 4 11 5 12 6 15 7 16 8 29 9 30 10 4 11 3 12
REMARK SMILES IDX 2 13 1 14 7 15 8 16 13 17 14 18 17 19 18 20 28 21 19 22
REMARK SMILES IDX 25 23 22 24 20 25 21 26 26 27 27 28 23 29 24 30
REMARK H PARENT
ROOT
ATOM      1  C   UNL     1       4.003   0.524   0.000  1.00  0.00     0.207 A 
ATOM      2  C   UNL     1       3.737   2.000   0.000  1.00  0.00     0.165 A 
ATOM      3  C   UNL     1       2.325   2.508   0.000  1.00  0.00     0.058 A 
ATOM      4  C   UNL     1       1.180   1.539   0.000  1.00  0.00     0.009 A 
ATOM      5  C   UNL     1       1.446   0.063   0.000  1.00  0.00     0.169 A 
ATOM      6  C   UNL     1       2.858  -0.445   0.000  1.00  0.00     0.207 A 
ATOM      7  O   UNL     1       0.124  -0.646   0.000  1.00  0.00    -0.481 OA
ATOM      8  C   UNL     1      -0.959   0.391   0.000  1.00  0.00     0.211 C 
ATOM      9  C   UNL     1      -0.306   1.742   0.000  1.00  0.00     0.066 C 
ATOM     10  C   UNL     1      -1.016   3.064   0.000  1.00  0.00     0.017 C 
ENDROOT
BRANCH   1  11
ATOM     11  O   UNL     1       5.415   0.017   0.000  1.00  0.00    -0.482 OA
BRANCH  11  12
ATOM     12  C   UNL     1       5.681  -1.460   0.000  1.00  0.00     0.257 C 
BRANCH  12  13
ATOM     13  C   UNL     1       7.092  -1.967   0.000  1.00  0.00     0.006 C 
ATOM     14  C   UNL     1       7.359  -3.443   0.000  1.00  0.00     0.007 C 
ENDBRANCH  12  13
ENDBRANCH  11  12
ENDBRANCH   1  11
BRANCH   2  15
ATOM     15  O   UNL     1       4.882   2.969   0.000  1.00  0.00    -0.493 OA
ATOM     16  C   UNL     1       6.293   2.461   0.000  1.00  0.00     0.278 C 
ENDBRANCH   2  15
BRANCH   6  17
ATOM     17  O   UNL     1       3.124  -1.921   0.000  1.00  0.00    -0.490 OA
ATOM     18  C   UNL     1       4.535  -2.428   0.000  1.00  0.00     0.278 C 
ENDBRANCH   6  17
BRANCH   8  19
ATOM     19  C   UNL     1      -2.435   0.125   0.000  1.00  0.00     0.001 A 
ATOM     20  C   UNL     1      -3.404   1.270   0.000  1.00  0.00     0.058 A 
ATOM     21  C   UNL     1      -2.942  -1.286   0.000  1.00  0.00     0.058 A 
ATOM     22  C   UNL     1      -4.880   1.004   0.000  1.00  0.00     0.165 A 
ATOM     23  C   UNL     1      -4.418  -1.553   0.000  1.00  0.00     0.165 A 
ATOM     24  C   UNL     1      -5.387  -0.407   0.000  1.00  0.00     0.203 A 
BRANCH  22  25
ATOM     25  O   UNL     1      -5.848   2.150   0.000  1.00  0.00    -0.493 OA
ATOM     26  C   UNL     1      -5.341   3.561   0.000  1.00  0.00     0.278 C 
ENDBRANCH  22  25
BRANCH  23  27
ATOM     27  O   UNL     1      -4.926  -2.964   0.000  1.00  0.00    -0.493 OA
ATOM     28  C   UNL     1      -3.957  -4.109   0.000  1.00  0.00     0.278 C 
ENDBRANCH  23  27
BRANCH  24  29
ATOM     29  O   UNL     1      -6.863  -0.674   0.000  1.00  0.00    -0.490 OA
ATOM     30  C   UNL     1      -7.371  -2.085   0.000  1.00  0.00     0.278 C 
ENDBRANCH  24  29
ENDBRANCH   8  19
TORSDOF 9
