REMARK SMILES COc1cc2oc(-c3cc(OC)c4c(c3)OCO4)cc(=O)c2c(OC)c1C=CC(C)(C)O
REMARK SMILES IDX 27 1 26 2 3 3 4 4 5 5 23 6 22 7 6 8 20 9 7 10 19 11 21 12
REMARK SMILES IDX 2 13 1 14 24 15 25 16 8 17 9 18 15 19 10 20 14 21 13 22
REMARK SMILES IDX 16 23 18 24 17 25 11 26 12 27 28 28 29 29 30 30 31 31 32 32
REMARK H PARENT 32 33
ROOT
ATOM      1  C   UNL     1      -4.889  -0.429   0.000  1.00  0.00     0.014 C 
ENDROOT
BRANCH   1   2
ATOM      2  C   UNL     1      -3.414  -0.156   0.000  1.00  0.00     0.059 A 
ATOM      3  C   UNL     1      -2.913   1.257   0.000  1.00  0.00     0.133 A 
ATOM      4  C   UNL     1      -1.438   1.530   0.000  1.00  0.00     0.095 A 
ATOM      5  C   UNL     1      -0.464   0.389   0.000  1.00  0.00     0.146 A 
ATOM      6  C   UNL     1      -2.441  -1.298   0.000  1.00  0.00     0.144 A 
ATOM      7  C   UNL     1      -0.966  -1.025   0.000  1.00  0.00     0.108 A 
ATOM      8  O   UNL     1       1.011   0.661   0.000  1.00  0.00    -0.456 OA
ATOM      9  C   UNL     1       0.008  -2.166   0.000  1.00  0.00     0.197 A 
ATOM     10  C   UNL     1       1.984  -0.480   0.000  1.00  0.00     0.138 A 
ATOM     11  C   UNL     1       1.483  -1.894   0.000  1.00  0.00     0.100 A 
ATOM     12  O   UNL     1      -0.494  -3.580   0.000  1.00  0.00    -0.289 OA
BRANCH   3  13
ATOM     13  O   UNL     1      -3.886   2.398   0.000  1.00  0.00    -0.496 OA
ATOM     14  C   UNL     1      -3.384   3.812   0.000  1.00  0.00     0.278 C 
ENDBRANCH   3  13
BRANCH   6  15
ATOM     15  O   UNL     1      -2.942  -2.711   0.000  1.00  0.00    -0.495 OA
ATOM     16  C   UNL     1      -4.417  -2.984   0.000  1.00  0.00     0.278 C 
ENDBRANCH   6  15
BRANCH  10  17
ATOM     17  C   UNL     1       3.459  -0.208   0.000  1.00  0.00     0.025 A 
ATOM     18  C   UNL     1       3.961   1.206   0.000  1.00  0.00     0.062 A 
ATOM     19  C   UNL     1       4.433  -1.349   0.000  1.00  0.00     0.063 A 
ATOM     20  C   UNL     1       5.436   1.478   0.000  1.00  0.00     0.165 A 
ATOM     21  C   UNL     1       5.908  -1.077   0.000  1.00  0.00     0.170 A 
ATOM     22  C   UNL     1       6.410   0.337   0.000  1.00  0.00     0.207 A 
ATOM     23  O   UNL     1       7.098  -1.991   0.000  1.00  0.00    -0.453 OA
ATOM     24  O   UNL     1       7.909   0.297   0.000  1.00  0.00    -0.450 OA
ATOM     25  C   UNL     1       8.334  -1.142   0.000  1.00  0.00     0.468 C 
BRANCH  20  26
ATOM     26  O   UNL     1       5.938   2.892   0.000  1.00  0.00    -0.493 OA
ATOM     27  C   UNL     1       4.964   4.033   0.000  1.00  0.00     0.278 C 
ENDBRANCH  20  26
ENDBRANCH  10  17
ENDBRANCH   1   2
BRANCH   1  28
ATOM     28  C   UNL     1      -5.863   0.712   0.000  1.00  0.00     0.008 C 
BRANCH  28  29
ATOM     29  C   UNL     1      -7.338   0.440   0.000  1.00  0.00     0.077 C 
ATOM     30  C   UNL     1      -7.065  -1.035   0.000  1.00  0.00     0.046 C 
ATOM     31  C   UNL     1      -7.610   1.915   0.000  1.00  0.00     0.046 C 
BRANCH  29  32
ATOM     32  O   UNL     1      -8.813   0.168   0.000  1.00  0.00    -0.386 OA
ATOM     33  H   UNL     1       0.000   0.000   0.000  1.00  0.00     0.211 HD
ENDBRANCH  29  32
ENDBRANCH  28  29
ENDBRANCH   1  28
TORSDOF 8
