REMARK SMILES O=C(/C=C/c1ccccc1)O[C@@H]1[C@@H](O)[C@H](O)[C@@H](CO)O[C@H]1c1c(O)cc2oc3cc(O)c(O)cc3c(=O)c2c1O
REMARK SMILES IDX 11 1 2 2 1 3 3 4 4 5 5 6 6 7 10 8 7 9 9 10 8 11 12 12 13 13
REMARK SMILES IDX 21 14 15 15 20 16 17 17 14 18 22 20 23 21 39 22 25 23 38 24
REMARK SMILES IDX 26 25 36 26 27 27 35 28 28 29 34 30 29 31 32 32 30 33 37 34
REMARK SMILES IDX 24 35 40 37 33 39 31 41 16 43 18 45 19 46
REMARK H PARENT 14 19 24 36 40 38 33 40 31 42 16 44 19 47
ROOT
ATOM      1  O   UNL     1      -1.795   0.809   0.000  1.00  0.00    -0.453 OA
ENDROOT
BRANCH   1   2
ATOM      2  C   UNL     1      -1.970   2.299   0.000  1.00  0.00     0.331 C 
ATOM      3  O   UNL     1      -3.348   2.892   0.000  1.00  0.00    -0.247 OA
BRANCH   2   4
ATOM      4  C   UNL     1      -0.767   3.195   0.000  1.00  0.00     0.094 C 
BRANCH   4   5
ATOM      5  C   UNL     1      -0.942   4.685   0.000  1.00  0.00     0.015 C 
BRANCH   5   6
ATOM      6  C   UNL     1       0.261   5.581   0.000  1.00  0.00    -0.025 A 
ATOM      7  C   UNL     1       1.639   4.987   0.000  1.00  0.00     0.008 A 
ATOM      8  C   UNL     1       0.086   7.071   0.000  1.00  0.00     0.008 A 
ATOM      9  C   UNL     1       2.841   5.884   0.000  1.00  0.00     0.001 A 
ATOM     10  C   UNL     1       1.289   7.967   0.000  1.00  0.00     0.001 A 
ATOM     11  C   UNL     1       2.667   7.373   0.000  1.00  0.00     0.000 A 
ENDBRANCH   5   6
ENDBRANCH   4   5
ENDBRANCH   2   4
ENDBRANCH   1   2
BRANCH   1  12
ATOM     12  C   UNL     1      -2.998  -0.087   0.000  1.00  0.00     0.242 C 
ATOM     13  C   UNL     1      -4.376   0.506   0.000  1.00  0.00     0.189 C 
ATOM     14  C   UNL     1      -2.823  -1.577   0.000  1.00  0.00     0.200 C 
ATOM     15  C   UNL     1      -5.578  -0.390   0.000  1.00  0.00     0.178 C 
ATOM     16  O   UNL     1      -4.026  -2.473   0.000  1.00  0.00    -0.361 OA
ATOM     17  C   UNL     1      -5.404  -1.880   0.000  1.00  0.00     0.176 C 
BRANCH  13  18
ATOM     18  O   UNL     1      -4.550   1.996   0.000  1.00  0.00    -0.386 OA
ATOM     19  H   UNL     1       0.000   0.000   0.000  1.00  0.00     0.211 HD
ENDBRANCH  13  18
BRANCH  14  20
ATOM     20  C   UNL     1      -1.446  -2.171   0.000  1.00  0.00     0.069 A 
ATOM     21  C   UNL     1      -1.271  -3.660   0.000  1.00  0.00     0.129 A 
ATOM     22  C   UNL     1      -0.243  -1.274   0.000  1.00  0.00     0.140 A 
ATOM     23  C   UNL     1       0.107  -4.254   0.000  1.00  0.00     0.094 A 
ATOM     24  C   UNL     1       1.135  -1.868   0.000  1.00  0.00     0.108 A 
ATOM     25  C   UNL     1       1.309  -3.358   0.000  1.00  0.00     0.146 A 
ATOM     26  C   UNL     1       2.337  -0.972   0.000  1.00  0.00     0.204 A 
ATOM     27  O   UNL     1       2.687  -3.951   0.000  1.00  0.00    -0.455 OA
ATOM     28  C   UNL     1       3.715  -1.565   0.000  1.00  0.00     0.069 A 
ATOM     29  C   UNL     1       3.890  -3.055   0.000  1.00  0.00     0.142 A 
ATOM     30  C   UNL     1       4.918  -0.669   0.000  1.00  0.00     0.066 A 
ATOM     31  C   UNL     1       5.267  -3.649   0.000  1.00  0.00     0.098 A 
ATOM     32  C   UNL     1       6.295  -1.263   0.000  1.00  0.00     0.158 A 
ATOM     33  C   UNL     1       6.470  -2.752   0.000  1.00  0.00     0.161 A 
ATOM     34  O   UNL     1       2.163   0.518   0.000  1.00  0.00    -0.288 OA
BRANCH  21  35
ATOM     35  O   UNL     1      -2.474  -4.557   0.000  1.00  0.00    -0.507 OA
ATOM     36  H   UNL     1       0.000   0.000   0.000  1.00  0.00     0.293 HD
ENDBRANCH  21  35
BRANCH  22  37
ATOM     37  O   UNL     1      -0.418   0.215   0.000  1.00  0.00    -0.506 OA
ATOM     38  H   UNL     1       0.000   0.000   0.000  1.00  0.00     0.293 HD
ENDBRANCH  22  37
BRANCH  32  39
ATOM     39  O   UNL     1       7.498  -0.366   0.000  1.00  0.00    -0.504 OA
ATOM     40  H   UNL     1       0.000   0.000   0.000  1.00  0.00     0.293 HD
ENDBRANCH  32  39
BRANCH  33  41
ATOM     41  O   UNL     1       7.848  -3.346   0.000  1.00  0.00    -0.504 OA
ATOM     42  H   UNL     1       0.000   0.000   0.000  1.00  0.00     0.293 HD
ENDBRANCH  33  41
ENDBRANCH  14  20
BRANCH  15  43
ATOM     43  O   UNL     1      -6.956   0.203   0.000  1.00  0.00    -0.387 OA
ATOM     44  H   UNL     1       0.000   0.000   0.000  1.00  0.00     0.211 HD
ENDBRANCH  15  43
BRANCH  17  45
ATOM     45  C   UNL     1      -6.606  -2.776   0.000  1.00  0.00     0.191 C 
BRANCH  45  46
ATOM     46  O   UNL     1      -6.432  -4.266   0.000  1.00  0.00    -0.394 OA
ATOM     47  H   UNL     1       0.000   0.000   0.000  1.00  0.00     0.210 HD
ENDBRANCH  45  46
ENDBRANCH  17  45
ENDBRANCH   1  12
TORSDOF 14
