REMARK SMILES COc1c2c(nc3occc13)[C@@](CC=C(C)C)(OC)[C@H](O)CC2
REMARK SMILES IDX 13 1 12 2 3 3 4 4 11 5 23 6 5 7 7 8 10 9 22 10 6 11 8 12
REMARK SMILES IDX 9 13 20 14 2 15 1 16 18 17 19 18 21 19 14 21 15 22 16 23
REMARK SMILES IDX 17 24
REMARK H PARENT 21 20
ROOT
ATOM      1  C   UNL     1       1.706   0.262   0.000  1.00  0.00     0.072 C 
ENDROOT
BRANCH   1   2
ATOM      2  C   UNL     1       1.286  -1.178   0.000  1.00  0.00     0.139 C 
ATOM      3  C   UNL     1      -2.652  -0.682   0.000  1.00  0.00     0.136 A 
ATOM      4  C   UNL     1      -1.307  -1.346   0.000  1.00  0.00     0.020 A 
ATOM      5  C   UNL     1      -2.749   0.815   0.000  1.00  0.00     0.083 A 
ATOM      6  C   UNL     1      -1.209  -2.843   0.000  1.00  0.00     0.044 C 
ATOM      7  C   UNL     1      -0.059  -0.514   0.000  1.00  0.00     0.086 A 
ATOM      8  C   UNL     1      -1.501   1.647   0.000  1.00  0.00     0.229 A 
ATOM      9  C   UNL     1      -3.926   1.744   0.000  1.00  0.00     0.056 A 
ATOM     10  C   UNL     1       0.136  -3.507   0.000  1.00  0.00     0.040 C 
ATOM     11  N   UNL     1      -0.156   0.983   0.000  1.00  0.00    -0.214 NA
ATOM     12  O   UNL     1      -1.908   3.091   0.000  1.00  0.00    -0.446 OA
ATOM     13  C   UNL     1      -3.407   3.151   0.000  1.00  0.00     0.198 A 
ATOM     14  C   UNL     1       1.383  -2.675   0.000  1.00  0.00     0.153 C 
BRANCH   3  15
ATOM     15  O   UNL     1      -3.899  -1.515   0.000  1.00  0.00    -0.496 OA
ATOM     16  C   UNL     1      -5.244  -0.851   0.000  1.00  0.00     0.278 C 
ENDBRANCH   3  15
BRANCH   2  17
ATOM     17  O   UNL     1       2.777  -1.342   0.000  1.00  0.00    -0.369 OA
ATOM     18  C   UNL     1       3.664  -0.133   0.000  1.00  0.00     0.196 C 
ENDBRANCH   2  17
BRANCH  14  19
ATOM     19  O   UNL     1       2.728  -3.339   0.000  1.00  0.00    -0.390 OA
ATOM     20  H   UNL     1       0.000   0.000   0.000  1.00  0.00     0.211 HD
ENDBRANCH  14  19
ENDBRANCH   1   2
BRANCH   1  21
ATOM     21  C   UNL     1       3.164   0.618   0.000  1.00  0.00    -0.025 C 
BRANCH  21  22
ATOM     22  C   UNL     1       3.584   2.058   0.000  1.00  0.00    -0.080 C 
ATOM     23  C   UNL     1       5.041   2.414   0.000  1.00  0.00     0.039 C 
ATOM     24  C   UNL     1       2.547   3.142   0.000  1.00  0.00     0.039 C 
ENDBRANCH  21  22
ENDBRANCH   1  21
TORSDOF 6
