REMARK SMILES COc1cc(C(=O)OC[C@@]2(O)CO[C@@H](OC[C@H]3O[C@@H](Oc4cc(OC)c(OC)c(OC)c4)[C@H](O)[C@@H](O)[C@@H]3O)[C@@H]2O)cc(OC)c1O
REMARK SMILES IDX 10 1 12 2 13 3 14 4 39 5 9 6 8 7 6 8 7 9 5 10 3 11 4 12
REMARK SMILES IDX 45 13 42 14 41 15 2 16 1 17 46 18 43 20 44 21 11 22 40 24
REMARK SMILES IDX 15 26 16 27 17 28 18 29 37 30 19 31 35 32 33 33 38 34 20 36
REMARK SMILES IDX 21 37 22 38 32 39 23 40 29 41 26 42 24 43 25 44 30 45 31 46
REMARK SMILES IDX 27 47 28 48 36 49 34 51
REMARK H PARENT 46 19 11 23 40 25 38 35 36 50 34 52
ROOT
ATOM      1  C   UNL     1       2.719   0.633   0.000  1.00  0.00     0.153 C 
ATOM      2  C   UNL     1       1.746   1.775   0.000  1.00  0.00     0.205 C 
ATOM      3  O   UNL     1       0.360   1.203   0.000  1.00  0.00    -0.347 OA
ATOM      4  C   UNL     1       0.476  -0.293   0.000  1.00  0.00     0.282 C 
ATOM      5  C   UNL     1       1.934  -0.645   0.000  1.00  0.00     0.208 C 
ENDROOT
BRANCH   1   6
ATOM      6  C   UNL     1       3.908  -0.281   0.000  1.00  0.00     0.273 C 
BRANCH   6   7
ATOM      7  O   UNL     1       5.295   0.291   0.000  1.00  0.00    -0.459 OA
BRANCH   7   8
ATOM      8  C   UNL     1       6.484  -0.624   0.000  1.00  0.00     0.338 C 
ATOM      9  O   UNL     1       6.286  -2.111   0.000  1.00  0.00    -0.246 OA
BRANCH   8  10
ATOM     10  C   UNL     1       7.870  -0.051   0.000  1.00  0.00     0.067 A 
ATOM     11  C   UNL     1      10.445  -0.394   0.000  1.00  0.00     0.165 A 
ATOM     12  C   UNL     1       9.059  -0.966   0.000  1.00  0.00     0.066 A 
ATOM     13  C   UNL     1      10.643   1.093   0.000  1.00  0.00     0.200 A 
ATOM     14  C   UNL     1       9.454   2.008   0.000  1.00  0.00     0.165 A 
ATOM     15  C   UNL     1       8.068   1.436   0.000  1.00  0.00     0.066 A 
BRANCH  11  16
ATOM     16  O   UNL     1      11.634  -1.308   0.000  1.00  0.00    -0.493 OA
ATOM     17  C   UNL     1      11.437  -2.795   0.000  1.00  0.00     0.278 C 
ENDBRANCH  11  16
BRANCH  13  18
ATOM     18  O   UNL     1      12.030   1.666   0.000  1.00  0.00    -0.502 OA
ATOM     19  H   UNL     1       0.000   0.000   0.000  1.00  0.00     0.293 HD
ENDBRANCH  13  18
BRANCH  14  20
ATOM     20  O   UNL     1       9.652   3.495   0.000  1.00  0.00    -0.493 OA
ATOM     21  C   UNL     1       8.463   4.410   0.000  1.00  0.00     0.278 C 
ENDBRANCH  14  20
ENDBRANCH   8  10
ENDBRANCH   7   8
ENDBRANCH   6   7
ENDBRANCH   1   6
BRANCH   1  22
ATOM     22  O   UNL     1       3.753   1.720   0.000  1.00  0.00    -0.381 OA
ATOM     23  H   UNL     1       0.000   0.000   0.000  1.00  0.00     0.211 HD
ENDBRANCH   1  22
BRANCH   5  24
ATOM     24  O   UNL     1       2.506  -2.031   0.000  1.00  0.00    -0.385 OA
ATOM     25  H   UNL     1       0.000   0.000   0.000  1.00  0.00     0.211 HD
ENDBRANCH   5  24
BRANCH   4  26
ATOM     26  O   UNL     1      -0.666  -1.266   0.000  1.00  0.00    -0.347 OA
BRANCH  26  27
ATOM     27  C   UNL     1      -2.079  -0.763   0.000  1.00  0.00     0.198 C 
BRANCH  27  28
ATOM     28  C   UNL     1      -3.221  -1.736   0.000  1.00  0.00     0.180 C 
ATOM     29  O   UNL     1      -4.635  -1.234   0.000  1.00  0.00    -0.332 OA
ATOM     30  C   UNL     1      -2.950  -3.211   0.000  1.00  0.00     0.177 C 
ATOM     31  C   UNL     1      -5.776  -2.207   0.000  1.00  0.00     0.339 C 
ATOM     32  C   UNL     1      -4.091  -4.184   0.000  1.00  0.00     0.180 C 
ATOM     33  C   UNL     1      -5.505  -3.682   0.000  1.00  0.00     0.214 C 
BRANCH  30  34
ATOM     34  O   UNL     1      -1.536  -3.714   0.000  1.00  0.00    -0.387 OA
ATOM     35  H   UNL     1       0.000   0.000   0.000  1.00  0.00     0.211 HD
ENDBRANCH  30  34
BRANCH  31  36
ATOM     36  O   UNL     1      -7.190  -1.704   0.000  1.00  0.00    -0.462 OA
BRANCH  36  37
ATOM     37  C   UNL     1      -7.461  -0.229   0.000  1.00  0.00     0.130 A 
ATOM     38  C   UNL     1      -6.319   0.744   0.000  1.00  0.00     0.097 A 
ATOM     39  C   UNL     1      -8.875   0.274   0.000  1.00  0.00     0.097 A 
ATOM     40  C   UNL     1      -6.591   2.219   0.000  1.00  0.00     0.168 A 
ATOM     41  C   UNL     1      -9.146   1.749   0.000  1.00  0.00     0.168 A 
ATOM     42  C   UNL     1      -8.004   2.721   0.000  1.00  0.00     0.203 A 
BRANCH  40  43
ATOM     43  O   UNL     1      -5.449   3.192   0.000  1.00  0.00    -0.493 OA
ATOM     44  C   UNL     1      -4.036   2.689   0.000  1.00  0.00     0.278 C 
ENDBRANCH  40  43
BRANCH  41  45
ATOM     45  O   UNL     1     -10.559   2.251   0.000  1.00  0.00    -0.493 OA
ATOM     46  C   UNL     1     -11.701   1.278   0.000  1.00  0.00     0.278 C 
ENDBRANCH  41  45
BRANCH  42  47
ATOM     47  O   UNL     1      -8.276   4.197   0.000  1.00  0.00    -0.490 OA
ATOM     48  C   UNL     1      -9.689   4.699   0.000  1.00  0.00     0.278 C 
ENDBRANCH  42  47
ENDBRANCH  36  37
ENDBRANCH  31  36
BRANCH  32  49
ATOM     49  O   UNL     1      -3.820  -5.659   0.000  1.00  0.00    -0.387 OA
ATOM     50  H   UNL     1       0.000   0.000   0.000  1.00  0.00     0.211 HD
ENDBRANCH  32  49
BRANCH  33  51
ATOM     51  O   UNL     1      -6.646  -4.655   0.000  1.00  0.00    -0.384 OA
ATOM     52  H   UNL     1       0.000   0.000   0.000  1.00  0.00     0.211 HD
ENDBRANCH  33  51
ENDBRANCH  27  28
ENDBRANCH  26  27
ENDBRANCH   4  26
TORSDOF 20
