REMARK SMILES C[C@H]1O[C@H](O[C@H]2Cc3c(O)cc(O)cc3O[C@@H]2c2ccc(O)cc2)[C@@H](O)[C@@H](O)[C@@H]1O
REMARK SMILES IDX 6 1 7 2 8 3 9 4 11 5 12 6 14 7 15 8 16 9 17 10 5 11 4 12
REMARK SMILES IDX 2 13 3 14 29 15 27 16 25 17 1 18 30 19 28 21 26 23 18 25
REMARK SMILES IDX 19 26 24 27 20 28 23 29 21 30 22 31 10 33 13 35
REMARK H PARENT 30 20 28 22 26 24 22 32 10 34 13 36
ROOT
ATOM      1  C   UNL     1       0.384   0.187   0.000  1.00  0.00     0.171 C 
ATOM      2  C   UNL     1       0.429  -1.313   0.000  1.00  0.00     0.080 C 
ATOM      3  C   UNL     1       1.750  -2.023   0.000  1.00  0.00     0.039 A 
ATOM      4  C   UNL     1       1.795  -3.523   0.000  1.00  0.00     0.126 A 
ATOM      5  C   UNL     1       3.116  -4.234   0.000  1.00  0.00     0.092 A 
ATOM      6  C   UNL     1       4.392  -3.445   0.000  1.00  0.00     0.122 A 
ATOM      7  C   UNL     1       4.347  -1.946   0.000  1.00  0.00     0.093 A 
ATOM      8  C   UNL     1       3.026  -1.235   0.000  1.00  0.00     0.131 A 
ATOM      9  O   UNL     1       2.981   0.264   0.000  1.00  0.00    -0.482 OA
ATOM     10  C   UNL     1       1.660   0.975   0.000  1.00  0.00     0.233 C 
ENDROOT
BRANCH   1  11
ATOM     11  O   UNL     1      -0.937   0.897   0.000  1.00  0.00    -0.342 OA
BRANCH  11  12
ATOM     12  C   UNL     1      -2.213   0.109   0.000  1.00  0.00     0.282 C 
ATOM     13  C   UNL     1      -3.444  -2.179   0.000  1.00  0.00     0.150 C 
ATOM     14  O   UNL     1      -2.168  -1.391   0.000  1.00  0.00    -0.344 OA
ATOM     15  C   UNL     1      -4.765  -1.468   0.000  1.00  0.00     0.174 C 
ATOM     16  C   UNL     1      -4.809   0.031   0.000  1.00  0.00     0.179 C 
ATOM     17  C   UNL     1      -3.534   0.820   0.000  1.00  0.00     0.202 C 
ATOM     18  C   UNL     1      -3.399  -3.678   0.000  1.00  0.00     0.041 C 
BRANCH  15  19
ATOM     19  O   UNL     1      -6.041  -2.257   0.000  1.00  0.00    -0.388 OA
ATOM     20  H   UNL     1       0.000   0.000   0.000  1.00  0.00     0.211 HD
ENDBRANCH  15  19
BRANCH  16  21
ATOM     21  O   UNL     1      -6.130   0.742   0.000  1.00  0.00    -0.387 OA
ATOM     22  H   UNL     1       0.000   0.000   0.000  1.00  0.00     0.211 HD
ENDBRANCH  16  21
BRANCH  17  23
ATOM     23  O   UNL     1      -3.579   2.319   0.000  1.00  0.00    -0.385 OA
ATOM     24  H   UNL     1       0.000   0.000   0.000  1.00  0.00     0.211 HD
ENDBRANCH  17  23
ENDBRANCH  11  12
ENDBRANCH   1  11
BRANCH  10  25
ATOM     25  C   UNL     1       1.615   2.474   0.000  1.00  0.00    -0.005 A 
ATOM     26  C   UNL     1       2.891   3.263   0.000  1.00  0.00     0.011 A 
ATOM     27  C   UNL     1       0.294   3.185   0.000  1.00  0.00     0.011 A 
ATOM     28  C   UNL     1       2.846   4.762   0.000  1.00  0.00     0.046 A 
ATOM     29  C   UNL     1       0.249   4.685   0.000  1.00  0.00     0.046 A 
ATOM     30  C   UNL     1       1.526   5.473   0.000  1.00  0.00     0.115 A 
BRANCH  30  31
ATOM     31  O   UNL     1       1.481   6.973   0.000  1.00  0.00    -0.508 OA
ATOM     32  H   UNL     1       0.000   0.000   0.000  1.00  0.00     0.293 HD
ENDBRANCH  30  31
ENDBRANCH  10  25
BRANCH   4  33
ATOM     33  O   UNL     1       0.519  -4.311   0.000  1.00  0.00    -0.507 OA
ATOM     34  H   UNL     1       0.000   0.000   0.000  1.00  0.00     0.293 HD
ENDBRANCH   4  33
BRANCH   6  35
ATOM     35  O   UNL     1       5.713  -4.156   0.000  1.00  0.00    -0.508 OA
ATOM     36  H   UNL     1       0.000   0.000   0.000  1.00  0.00     0.293 HD
ENDBRANCH   6  35
TORSDOF 9
