REMARK SMILES CC(C)=CCCC(C)=CC=O
REMARK SMILES IDX 6 1 5 2 4 3 2 4 1 5 3 6 7 7 8 8 9 9 10 10 11 11
REMARK H PARENT
ROOT
ATOM      1  C   UNL     1       0.220   1.407   0.000  1.00  0.00     0.035 C 
ENDROOT
BRANCH   1   2
ATOM      2  C   UNL     1      -0.829   0.334   0.000  1.00  0.00     0.032 C 
BRANCH   2   3
ATOM      3  C   UNL     1      -2.283   0.706   0.000  1.00  0.00    -0.028 C 
BRANCH   3   4
ATOM      4  C   UNL     1      -3.331  -0.366   0.000  1.00  0.00    -0.080 C 
ATOM      5  C   UNL     1      -4.784   0.006   0.000  1.00  0.00     0.039 C 
ATOM      6  C   UNL     1      -2.927  -1.810   0.000  1.00  0.00     0.039 C 
ENDBRANCH   3   4
ENDBRANCH   2   3
ENDBRANCH   1   2
BRANCH   1   7
ATOM      7  C   UNL     1       1.673   1.034   0.000  1.00  0.00    -0.070 C 
ATOM      8  C   UNL     1       2.721   2.107   0.000  1.00  0.00     0.039 C 
BRANCH   7   9
ATOM      9  C   UNL     1       2.077  -0.410   0.000  1.00  0.00     0.042 C 
BRANCH   9  10
ATOM     10  C   UNL     1       3.530  -0.782   0.000  1.00  0.00     0.252 C 
ATOM     11  O   UNL     1       3.934  -2.227   0.000  1.00  0.00    -0.299 OA
ENDBRANCH   9  10
ENDBRANCH   7   9
ENDBRANCH   1   7
TORSDOF 6
