REMARK SMILES C=C1OC2=CC(=O)C(C)(C)[C@@H](CC(=O)OC)[C@]2(C)[C@]12C[C@@H](O)[C@]1(C)C2=CC(=O)O[C@H]1c1ccoc1
REMARK SMILES IDX 12 1 11 2 2 3 3 4 19 5 4 6 17 7 20 8 25 9 5 10 21 11 23 12
REMARK SMILES IDX 26 13 6 14 8 15 30 16 27 17 29 18 1 19 18 20 24 21 7 22 9 23
REMARK SMILES IDX 10 24 28 25 22 26 31 28 35 29 32 30 34 31 33 32 13 33 14 34
REMARK SMILES IDX 15 35 16 36
REMARK H PARENT 22 27
ROOT
ATOM      1  C   UNL     1      -0.539  -1.129   0.000  1.00  0.00     0.128 C 
ENDROOT
BRANCH   1   2
ATOM      2  C   UNL     1      -1.791  -0.302   0.000  1.00  0.00     0.028 C 
ATOM      3  C   UNL     1      -1.056   3.535   0.000  1.00  0.00     0.108 C 
ATOM      4  O   UNL     1      -2.554   3.467   0.000  1.00  0.00    -0.465 OA
ATOM      5  C   UNL     1      -0.529   2.130   0.000  1.00  0.00     0.065 C 
ATOM      6  C   UNL     1      -2.953   2.021   0.000  1.00  0.00     0.115 C 
ATOM      7  C   UNL     1      -1.701   1.195   0.000  1.00  0.00     0.047 C 
ATOM      8  C   UNL     1       0.644   3.066   0.000  1.00  0.00     0.053 C 
ATOM      9  C   UNL     1      -0.002   0.726   0.000  1.00  0.00    -0.036 C 
ATOM     10  C   UNL     1      -4.295   1.350   0.000  1.00  0.00     0.090 C 
ATOM     11  C   UNL     1       1.896   2.239   0.000  1.00  0.00     0.130 C 
ATOM     12  C   UNL     1       1.497   0.793   0.000  1.00  0.00     0.057 C 
ATOM     13  C   UNL     1      -0.692  -0.605   0.000  1.00  0.00     0.094 C 
ATOM     14  C   UNL     1      -4.384  -0.147   0.000  1.00  0.00     0.164 C 
ATOM     15  C   UNL     1      -3.132  -0.973   0.000  1.00  0.00     0.032 C 
ATOM     16  C   UNL     1       2.305  -0.471   0.000  1.00  0.00     0.223 C 
ATOM     17  C   UNL     1       0.115  -1.869   0.000  1.00  0.00     0.331 C 
ATOM     18  O   UNL     1       1.614  -1.802   0.000  1.00  0.00    -0.453 OA
ATOM     19  C   UNL     1      -0.230   4.787   0.000  1.00  0.00     0.055 C 
ATOM     20  C   UNL     1      -2.079   2.647   0.000  1.00  0.00     0.021 C 
ATOM     21  C   UNL     1       2.980   1.017   0.000  1.00  0.00     0.023 C 
ATOM     22  O   UNL     1      -5.726  -0.818   0.000  1.00  0.00    -0.294 OA
ATOM     23  C   UNL     1      -2.239  -2.178   0.000  1.00  0.00     0.020 C 
ATOM     24  C   UNL     1      -4.164  -2.063   0.000  1.00  0.00     0.020 C 
ATOM     25  O   UNL     1      -0.233  -3.329   0.000  1.00  0.00    -0.247 OA
BRANCH  11  26
ATOM     26  O   UNL     1       3.300   2.767   0.000  1.00  0.00    -0.392 OA
ATOM     27  H   UNL     1       0.000   0.000   0.000  1.00  0.00     0.210 HD
ENDBRANCH  11  26
BRANCH  16  28
ATOM     28  C   UNL     1       3.803  -0.403   0.000  1.00  0.00     0.032 A 
ATOM     29  C   UNL     1       4.629   0.849   0.000  1.00  0.00     0.202 A 
ATOM     30  C   UNL     1       4.738  -1.576   0.000  1.00  0.00     0.049 A 
ATOM     31  O   UNL     1       6.075   0.450   0.000  1.00  0.00    -0.472 OA
ATOM     32  C   UNL     1       6.143  -1.049   0.000  1.00  0.00     0.195 A 
ENDBRANCH  16  28
ENDBRANCH   1   2
BRANCH   1  33
ATOM     33  C   UNL     1      -0.629  -2.626   0.000  1.00  0.00     0.305 C 
ATOM     34  O   UNL     1      -1.970  -3.297   0.000  1.00  0.00    -0.252 OA
BRANCH  33  35
ATOM     35  O   UNL     1       0.623  -3.452   0.000  1.00  0.00    -0.469 OA
ATOM     36  C   UNL     1       0.534  -4.949   0.000  1.00  0.00     0.282 C 
ENDBRANCH  33  35
ENDBRANCH   1  33
TORSDOF 5
