REMARK SMILES Cn1c2ccccc2c(=O)c2c(O)cc3c(c21)C=CC(C)(C)O3
REMARK SMILES IDX 1 1 2 2 3 3 4 4 5 5 6 6 7 7 8 8 9 9 10 10 11 11 12 12 14 13
REMARK SMILES IDX 15 14 23 15 20 16 21 17 22 18 19 19 18 20 16 21 17 22 13 23
REMARK H PARENT 13 24
ROOT
ATOM      1  C   UNL     1       0.354  -2.688   0.000  1.00  0.00     0.150 C 
ATOM      2  N   UNL     1       0.946  -1.310   0.000  1.00  0.00    -0.343 N 
ATOM      3  C   UNL     1       2.435  -1.133   0.000  1.00  0.00     0.052 A 
ATOM      4  C   UNL     1       3.333  -2.335   0.000  1.00  0.00     0.027 A 
ATOM      5  C   UNL     1       4.822  -2.158   0.000  1.00  0.00     0.002 A 
ATOM      6  C   UNL     1       5.414  -0.780   0.000  1.00  0.00     0.001 A 
ATOM      7  C   UNL     1       4.516   0.422   0.000  1.00  0.00     0.014 A 
ATOM      8  C   UNL     1       3.027   0.245   0.000  1.00  0.00     0.046 A 
ATOM      9  C   UNL     1       2.129   1.447   0.000  1.00  0.00     0.200 A 
ATOM     10  O   UNL     1       2.721   2.825   0.000  1.00  0.00    -0.288 OA
ATOM     11  C   UNL     1       0.639   1.270   0.000  1.00  0.00     0.089 A 
ATOM     12  C   UNL     1      -0.258   2.472   0.000  1.00  0.00     0.132 A 
ATOM     13  C   UNL     1      -1.748   2.295   0.000  1.00  0.00     0.094 A 
ATOM     14  C   UNL     1      -2.340   0.917   0.000  1.00  0.00     0.133 A 
ATOM     15  O   UNL     1      -3.829   0.740   0.000  1.00  0.00    -0.483 OA
ATOM     16  C   UNL     1      -4.421  -0.638   0.000  1.00  0.00     0.122 C 
ATOM     17  C   UNL     1      -5.448  -1.731   0.000  1.00  0.00     0.061 C 
ATOM     18  C   UNL     1      -5.676   0.184   0.000  1.00  0.00     0.061 C 
ATOM     19  C   UNL     1      -3.523  -1.840   0.000  1.00  0.00     0.021 C 
ATOM     20  C   UNL     1      -2.034  -1.663   0.000  1.00  0.00     0.014 C 
ATOM     21  C   UNL     1      -1.442  -0.285   0.000  1.00  0.00     0.041 A 
ATOM     22  C   UNL     1       0.048  -0.108   0.000  1.00  0.00     0.067 A 
ENDROOT
BRANCH  12  23
ATOM     23  O   UNL     1       0.334   3.850   0.000  1.00  0.00    -0.507 OA
ATOM     24  H   UNL     1       0.000   0.000   0.000  1.00  0.00     0.293 HD
ENDBRANCH  12  23
TORSDOF 1
