REMARK SMILES C=C(C)C(=O)O
REMARK SMILES IDX 4 1 5 2 2 3 1 4 3 5 6 6
REMARK H PARENT 6 7
ROOT
ATOM      1  C   UNL     1       0.750  -0.000   0.000  1.00  0.00     0.330 C 
ATOM      2  O   UNL     1       1.500   1.299   0.000  1.00  0.00    -0.247 OA
ENDROOT
BRANCH   1   3
ATOM      3  C   UNL     1      -0.750   0.000   0.000  1.00  0.00     0.027 C 
ATOM      4  C   UNL     1      -1.500   1.299   0.000  1.00  0.00     0.020 C 
ATOM      5  C   UNL     1      -1.500  -1.299   0.000  1.00  0.00     0.051 C 
ENDBRANCH   1   3
BRANCH   1   6
ATOM      6  O   UNL     1       1.500  -1.299   0.000  1.00  0.00    -0.478 OA
ATOM      7  H   UNL     1       0.000   0.000   0.000  1.00  0.00     0.297 HD
ENDBRANCH   1   6
TORSDOF 2
