REMARK SMILES O=C(OCc1ccccc1)c1c(O)cccc1O
REMARK SMILES IDX 1 1 2 2 3 3 4 4 5 5 6 6 10 7 7 8 9 9 8 10 11 11 12 12 17 13
REMARK SMILES IDX 14 14 16 15 15 16 13 17 18 19
REMARK H PARENT 13 18 18 20
ROOT
ATOM      1  O   UNL     1      -1.086  -2.482   0.000  1.00  0.00    -0.246 OA
ATOM      2  C   UNL     1      -0.998  -0.985   0.000  1.00  0.00     0.346 C 
ENDROOT
BRANCH   2   3
ATOM      3  O   UNL     1       0.343  -0.312   0.000  1.00  0.00    -0.457 OA
BRANCH   3   4
ATOM      4  C   UNL     1       1.596  -1.137   0.000  1.00  0.00     0.269 C 
BRANCH   4   5
ATOM      5  C   UNL     1       2.937  -0.465   0.000  1.00  0.00    -0.011 A 
ATOM      6  C   UNL     1       4.189  -1.290   0.000  1.00  0.00     0.007 A 
ATOM      7  C   UNL     1       3.025   1.032   0.000  1.00  0.00     0.007 A 
ATOM      8  C   UNL     1       5.530  -0.618   0.000  1.00  0.00     0.000 A 
ATOM      9  C   UNL     1       4.366   1.704   0.000  1.00  0.00     0.000 A 
ATOM     10  C   UNL     1       5.619   0.879   0.000  1.00  0.00     0.000 A 
ENDBRANCH   4   5
ENDBRANCH   3   4
ENDBRANCH   2   3
BRANCH   2  11
ATOM     11  C   UNL     1      -2.251  -0.160   0.000  1.00  0.00     0.143 A 
ATOM     12  C   UNL     1      -2.162   1.338   0.000  1.00  0.00     0.133 A 
ATOM     13  C   UNL     1      -3.591  -0.832   0.000  1.00  0.00     0.133 A 
ATOM     14  C   UNL     1      -3.415   2.163   0.000  1.00  0.00     0.047 A 
ATOM     15  C   UNL     1      -4.844  -0.007   0.000  1.00  0.00     0.047 A 
ATOM     16  C   UNL     1      -4.756   1.491   0.000  1.00  0.00     0.008 A 
BRANCH  12  17
ATOM     17  O   UNL     1      -0.821   2.010   0.000  1.00  0.00    -0.507 OA
ATOM     18  H   UNL     1       0.000   0.000   0.000  1.00  0.00     0.293 HD
ENDBRANCH  12  17
BRANCH  13  19
ATOM     19  O   UNL     1      -3.680  -2.329   0.000  1.00  0.00    -0.507 OA
ATOM     20  H   UNL     1       0.000   0.000   0.000  1.00  0.00     0.293 HD
ENDBRANCH  13  19
ENDBRANCH   2  11
TORSDOF 6
