REMARK SMILES COc1ccc(-c2cc(=O)c3c(O)cc(O)cc3o2)cc1
REMARK SMILES IDX 7 1 8 2 9 3 10 4 11 5 12 6 14 7 15 8 17 9 18 10 19 11 6 12
REMARK SMILES IDX 3 13 4 14 21 15 5 16 20 17 2 18 1 19 13 20 16 22
REMARK H PARENT 13 21 16 23
ROOT
ATOM      1  C   UNL     1      -0.457  -0.336   0.000  1.00  0.00     0.138 A 
ATOM      2  C   UNL     1       0.187  -1.690   0.000  1.00  0.00     0.100 A 
ATOM      3  C   UNL     1       1.682  -1.810   0.000  1.00  0.00     0.197 A 
ATOM      4  O   UNL     1       2.326  -3.165   0.000  1.00  0.00    -0.289 OA
ATOM      5  C   UNL     1       2.534  -0.575   0.000  1.00  0.00     0.107 A 
ATOM      6  C   UNL     1       4.029  -0.695   0.000  1.00  0.00     0.134 A 
ATOM      7  C   UNL     1       4.880   0.540   0.000  1.00  0.00     0.093 A 
ATOM      8  C   UNL     1       4.236   1.895   0.000  1.00  0.00     0.123 A 
ATOM      9  C   UNL     1       2.741   2.015   0.000  1.00  0.00     0.094 A 
ATOM     10  C   UNL     1       1.890   0.780   0.000  1.00  0.00     0.146 A 
ATOM     11  O   UNL     1       0.394   0.899   0.000  1.00  0.00    -0.456 OA
ENDROOT
BRANCH   1  12
ATOM     12  C   UNL     1      -1.952  -0.216   0.000  1.00  0.00     0.018 A 
ATOM     13  C   UNL     1      -4.942   0.023   0.000  1.00  0.00     0.118 A 
ATOM     14  C   UNL     1      -4.091   1.258   0.000  1.00  0.00     0.047 A 
ATOM     15  C   UNL     1      -4.298  -1.331   0.000  1.00  0.00     0.047 A 
ATOM     16  C   UNL     1      -2.596   1.139   0.000  1.00  0.00     0.016 A 
ATOM     17  C   UNL     1      -2.803  -1.451   0.000  1.00  0.00     0.016 A 
BRANCH  13  18
ATOM     18  O   UNL     1      -6.438   0.143   0.000  1.00  0.00    -0.497 OA
ATOM     19  C   UNL     1      -7.082   1.498   0.000  1.00  0.00     0.278 C 
ENDBRANCH  13  18
ENDBRANCH   1  12
BRANCH   6  20
ATOM     20  O   UNL     1       4.673  -2.050   0.000  1.00  0.00    -0.507 OA
ATOM     21  H   UNL     1       0.000   0.000   0.000  1.00  0.00     0.293 HD
ENDBRANCH   6  20
BRANCH   8  22
ATOM     22  O   UNL     1       5.087   3.130   0.000  1.00  0.00    -0.508 OA
ATOM     23  H   UNL     1       0.000   0.000   0.000  1.00  0.00     0.293 HD
ENDBRANCH   8  22
TORSDOF 4
