REMARK SMILES CC(=O)O[C@@H](C/C=C/[C@H]1CC=CC(=O)O1)C[C@H](/C=C/c1ccccc1)OC(C)=O
REMARK SMILES IDX 5 1 4 2 2 3 1 4 3 5 6 6 7 7 8 8 9 9 10 10 15 11 11 12 13 13
REMARK SMILES IDX 12 14 14 15 16 16 17 17 18 18 19 19 20 20 21 21 25 22 22 23
REMARK SMILES IDX 24 24 23 25 26 26 27 27 28 28 29 29
REMARK H PARENT
ROOT
ATOM      1  C   UNL     1       0.680   1.569   0.000  1.00  0.00     0.184 C 
ENDROOT
BRANCH   1   2
ATOM      2  O   UNL     1       1.519   2.812   0.000  1.00  0.00    -0.462 OA
BRANCH   2   3
ATOM      3  C   UNL     1       0.862   4.161   0.000  1.00  0.00     0.302 C 
ATOM      4  C   UNL     1       1.701   5.404   0.000  1.00  0.00     0.139 C 
ATOM      5  O   UNL     1      -0.635   4.265   0.000  1.00  0.00    -0.253 OA
ENDBRANCH   2   3
ENDBRANCH   1   2
BRANCH   1   6
ATOM      6  C   UNL     1       1.338   0.221   0.000  1.00  0.00     0.072 C 
BRANCH   6   7
ATOM      7  C   UNL     1       2.834   0.116   0.000  1.00  0.00    -0.024 C 
BRANCH   7   8
ATOM      8  C   UNL     1       3.491  -1.232   0.000  1.00  0.00     0.013 C 
BRANCH   8   9
ATOM      9  C   UNL     1       4.988  -1.337   0.000  1.00  0.00     0.203 C 
ATOM     10  C   UNL     1       5.645  -2.686   0.000  1.00  0.00     0.077 C 
ATOM     11  O   UNL     1       5.827  -0.094   0.000  1.00  0.00    -0.455 OA
ATOM     12  C   UNL     1       7.141  -2.790   0.000  1.00  0.00    -0.015 C 
ATOM     13  C   UNL     1       7.323  -0.199   0.000  1.00  0.00     0.331 C 
ATOM     14  C   UNL     1       7.980  -1.547   0.000  1.00  0.00     0.089 C 
ATOM     15  O   UNL     1       8.162   1.045   0.000  1.00  0.00    -0.247 OA
ENDBRANCH   8   9
ENDBRANCH   7   8
ENDBRANCH   6   7
ENDBRANCH   1   6
BRANCH   1  16
ATOM     16  C   UNL     1      -0.816   1.674   0.000  1.00  0.00     0.095 C 
BRANCH  16  17
ATOM     17  C   UNL     1      -1.655   0.430   0.000  1.00  0.00     0.203 C 
BRANCH  17  18
ATOM     18  C   UNL     1      -3.151   0.535   0.000  1.00  0.00     0.018 C 
BRANCH  18  19
ATOM     19  C   UNL     1      -3.990  -0.708   0.000  1.00  0.00     0.007 C 
BRANCH  19  20
ATOM     20  C   UNL     1      -5.487  -0.604   0.000  1.00  0.00    -0.026 A 
ATOM     21  C   UNL     1      -6.325  -1.847   0.000  1.00  0.00     0.008 A 
ATOM     22  C   UNL     1      -6.144   0.745   0.000  1.00  0.00     0.008 A 
ATOM     23  C   UNL     1      -7.822  -1.742   0.000  1.00  0.00     0.001 A 
ATOM     24  C   UNL     1      -7.640   0.849   0.000  1.00  0.00     0.001 A 
ATOM     25  C   UNL     1      -8.479  -0.394   0.000  1.00  0.00     0.000 A 
ENDBRANCH  19  20
ENDBRANCH  18  19
ENDBRANCH  17  18
BRANCH  17  26
ATOM     26  O   UNL     1      -0.998  -0.918   0.000  1.00  0.00    -0.458 OA
BRANCH  26  27
ATOM     27  C   UNL     1      -1.837  -2.162   0.000  1.00  0.00     0.303 C 
ATOM     28  C   UNL     1      -1.179  -3.510   0.000  1.00  0.00     0.139 C 
ATOM     29  O   UNL     1      -3.333  -2.057   0.000  1.00  0.00    -0.253 OA
ENDBRANCH  26  27
ENDBRANCH  17  26
ENDBRANCH  16  17
ENDBRANCH   1  16
TORSDOF 13
