REMARK SMILES COc1ccc(-c2cc(=O)c3ccc4occc4c3o2)cc1
REMARK SMILES IDX 3 1 4 2 5 3 6 4 21 5 22 6 2 7 1 8 7 9 8 10 20 11 9 12 19 13
REMARK SMILES IDX 11 14 18 15 12 16 17 17 14 18 13 19 16 20 15 21 10 22
REMARK H PARENT
ROOT
ATOM      1  C   UNL     1      -4.936  -0.756   0.000  1.00  0.00     0.118 A 
ATOM      2  C   UNL     1      -4.595   0.705   0.000  1.00  0.00     0.047 A 
ATOM      3  C   UNL     1      -3.159   1.139   0.000  1.00  0.00     0.016 A 
ATOM      4  C   UNL     1      -2.065   0.113   0.000  1.00  0.00     0.018 A 
ATOM      5  C   UNL     1      -2.406  -1.347   0.000  1.00  0.00     0.016 A 
ATOM      6  C   UNL     1      -3.842  -1.782   0.000  1.00  0.00     0.047 A 
ENDROOT
BRANCH   1   7
ATOM      7  O   UNL     1      -6.372  -1.191   0.000  1.00  0.00    -0.497 OA
ATOM      8  C   UNL     1      -7.466  -0.165   0.000  1.00  0.00     0.278 C 
ENDBRANCH   1   7
BRANCH   4   9
ATOM      9  C   UNL     1      -0.629   0.548   0.000  1.00  0.00     0.138 A 
ATOM     10  C   UNL     1      -0.288   2.009   0.000  1.00  0.00     0.100 A 
ATOM     11  O   UNL     1       0.465  -0.478   0.000  1.00  0.00    -0.455 OA
ATOM     12  C   UNL     1       1.148   2.444   0.000  1.00  0.00     0.193 A 
ATOM     13  C   UNL     1       1.901  -0.043   0.000  1.00  0.00     0.149 A 
ATOM     14  C   UNL     1       2.242   1.418   0.000  1.00  0.00     0.066 A 
ATOM     15  C   UNL     1       2.995  -1.069   0.000  1.00  0.00     0.064 A 
ATOM     16  C   UNL     1       3.678   1.853   0.000  1.00  0.00     0.020 A 
ATOM     17  C   UNL     1       2.965  -2.568   0.000  1.00  0.00     0.054 A 
ATOM     18  C   UNL     1       4.431  -0.634   0.000  1.00  0.00     0.137 A 
ATOM     19  C   UNL     1       4.772   0.827   0.000  1.00  0.00     0.049 A 
ATOM     20  C   UNL     1       4.382  -3.061   0.000  1.00  0.00     0.196 A 
ATOM     21  O   UNL     1       5.288  -1.865   0.000  1.00  0.00    -0.464 OA
ATOM     22  O   UNL     1       1.489   3.904   0.000  1.00  0.00    -0.289 OA
ENDBRANCH   4   9
TORSDOF 2
