REMARK SMILES CC=CC=Cc1cc(O)cc(O)c1C=O
REMARK SMILES IDX 4 1 3 2 2 3 1 4 5 5 6 6 7 7 13 8 8 9 11 10 10 11 14 12 15 13
REMARK SMILES IDX 9 14 12 16
REMARK H PARENT 9 15 12 17
ROOT
ATOM      1  C   UNL     1      -2.420   0.150   0.000  1.00  0.00     0.000 C 
ENDROOT
BRANCH   1   2
ATOM      2  C   UNL     1      -3.763  -0.518   0.000  1.00  0.00    -0.005 C 
BRANCH   2   3
ATOM      3  C   UNL     1      -5.013   0.310   0.000  1.00  0.00    -0.030 C 
ATOM      4  C   UNL     1      -6.356  -0.358   0.000  1.00  0.00     0.035 C 
ENDBRANCH   2   3
ENDBRANCH   1   2
BRANCH   1   5
ATOM      5  C   UNL     1      -1.170  -0.679   0.000  1.00  0.00     0.009 C 
BRANCH   5   6
ATOM      6  C   UNL     1       0.173  -0.011   0.000  1.00  0.00    -0.008 A 
ATOM      7  C   UNL     1       0.266   1.486   0.000  1.00  0.00     0.055 A 
ATOM      8  C   UNL     1       1.423  -0.840   0.000  1.00  0.00     0.064 A 
ATOM      9  C   UNL     1       1.609   2.155   0.000  1.00  0.00     0.119 A 
ATOM     10  C   UNL     1       2.766  -0.171   0.000  1.00  0.00     0.130 A 
ATOM     11  C   UNL     1       2.859   1.326   0.000  1.00  0.00     0.093 A 
BRANCH   8  12
ATOM     12  C   UNL     1       1.330  -2.337   0.000  1.00  0.00     0.264 C 
ATOM     13  O   UNL     1       2.581  -3.166   0.000  1.00  0.00    -0.298 OA
ENDBRANCH   8  12
BRANCH   9  14
ATOM     14  O   UNL     1       1.701   3.652   0.000  1.00  0.00    -0.508 OA
ATOM     15  H   UNL     1       0.000   0.000   0.000  1.00  0.00     0.293 HD
ENDBRANCH   9  14
BRANCH  10  16
ATOM     16  O   UNL     1       4.016  -1.000   0.000  1.00  0.00    -0.507 OA
ATOM     17  H   UNL     1       0.000   0.000   0.000  1.00  0.00     0.293 HD
ENDBRANCH  10  16
ENDBRANCH   5   6
ENDBRANCH   1   5
TORSDOF 7
