REMARK SMILES COc1cc(O)c2c(=O)c(OC)c(-c3ccc(OC)c(O)c3)oc2c1
REMARK SMILES IDX 3 1 4 2 5 3 7 4 8 5 9 6 10 7 13 8 23 9 24 10 25 11 2 12 1 13
REMARK SMILES IDX 6 14 14 16 15 17 22 18 16 19 20 20 17 21 21 22 18 24 19 25
REMARK SMILES IDX 11 26 12 27
REMARK H PARENT 6 15 21 23
ROOT
ATOM      1  C   UNL     1      -4.535  -1.513   0.000  1.00  0.00     0.126 A 
ATOM      2  C   UNL     1      -4.992  -0.084   0.000  1.00  0.00     0.093 A 
ATOM      3  C   UNL     1      -3.983   1.026   0.000  1.00  0.00     0.134 A 
ATOM      4  C   UNL     1      -2.517   0.707   0.000  1.00  0.00     0.111 A 
ATOM      5  C   UNL     1      -1.508   1.817   0.000  1.00  0.00     0.239 A 
ATOM      6  O   UNL     1      -1.965   3.246   0.000  1.00  0.00    -0.285 OA
ATOM      7  C   UNL     1      -0.043   1.498   0.000  1.00  0.00     0.210 A 
ATOM      8  C   UNL     1       0.414   0.069   0.000  1.00  0.00     0.180 A 
ATOM      9  O   UNL     1      -0.595  -1.040   0.000  1.00  0.00    -0.452 OA
ATOM     10  C   UNL     1      -2.061  -0.722   0.000  1.00  0.00     0.146 A 
ATOM     11  C   UNL     1      -3.070  -1.831   0.000  1.00  0.00     0.094 A 
ENDROOT
BRANCH   1  12
ATOM     12  O   UNL     1      -5.544  -2.623   0.000  1.00  0.00    -0.496 OA
ATOM     13  C   UNL     1      -7.010  -2.304   0.000  1.00  0.00     0.278 C 
ENDBRANCH   1  12
BRANCH   3  14
ATOM     14  O   UNL     1      -4.440   2.455   0.000  1.00  0.00    -0.507 OA
ATOM     15  H   UNL     1       0.000   0.000   0.000  1.00  0.00     0.293 HD
ENDBRANCH   3  14
BRANCH   8  16
ATOM     16  C   UNL     1       1.880  -0.249   0.000  1.00  0.00     0.025 A 
ATOM     17  C   UNL     1       2.337  -1.678   0.000  1.00  0.00     0.016 A 
ATOM     18  C   UNL     1       2.889   0.860   0.000  1.00  0.00     0.062 A 
ATOM     19  C   UNL     1       3.802  -1.997   0.000  1.00  0.00     0.051 A 
ATOM     20  C   UNL     1       4.355   0.541   0.000  1.00  0.00     0.158 A 
ATOM     21  C   UNL     1       4.811  -0.887   0.000  1.00  0.00     0.160 A 
BRANCH  20  22
ATOM     22  O   UNL     1       5.364   1.651   0.000  1.00  0.00    -0.504 OA
ATOM     23  H   UNL     1       0.000   0.000   0.000  1.00  0.00     0.293 HD
ENDBRANCH  20  22
BRANCH  21  24
ATOM     24  O   UNL     1       6.277  -1.206   0.000  1.00  0.00    -0.493 OA
ATOM     25  C   UNL     1       6.734  -2.635   0.000  1.00  0.00     0.278 C 
ENDBRANCH  21  24
ENDBRANCH   8  16
BRANCH   7  26
ATOM     26  O   UNL     1       0.967   2.608   0.000  1.00  0.00    -0.490 OA
ATOM     27  C   UNL     1       2.432   2.289   0.000  1.00  0.00     0.278 C 
ENDBRANCH   7  26
TORSDOF 6
