REMARK SMILES COc1ccc([C@H]2CC(=O)c3c(O)cc(OC)c(C)c3O2)cc1
REMARK SMILES IDX 7 1 8 2 9 3 10 4 11 5 12 6 14 7 15 8 18 9 19 10 20 11 21 12
REMARK SMILES IDX 6 13 3 14 4 15 23 16 5 17 22 18 2 19 1 20 13 21 16 23 17 24
REMARK H PARENT 13 22
ROOT
ATOM      1  C   UNL     1      -0.884  -0.538   0.000  1.00  0.00     0.211 C 
ATOM      2  C   UNL     1      -0.361  -1.944   0.000  1.00  0.00     0.131 C 
ATOM      3  C   UNL     1       1.118  -2.193   0.000  1.00  0.00     0.174 C 
ATOM      4  O   UNL     1       1.642  -3.599   0.000  1.00  0.00    -0.294 OA
ATOM      5  C   UNL     1       2.074  -1.037   0.000  1.00  0.00     0.102 A 
ATOM      6  C   UNL     1       3.553  -1.286   0.000  1.00  0.00     0.133 A 
ATOM      7  C   UNL     1       4.508  -0.130   0.000  1.00  0.00     0.093 A 
ATOM      8  C   UNL     1       3.985   1.275   0.000  1.00  0.00     0.129 A 
ATOM      9  C   UNL     1       2.506   1.525   0.000  1.00  0.00     0.034 A 
ATOM     10  C   UNL     1       1.982   2.930   0.000  1.00  0.00     0.052 C 
ATOM     11  C   UNL     1       1.550   0.369   0.000  1.00  0.00     0.141 A 
ATOM     12  O   UNL     1       0.071   0.618   0.000  1.00  0.00    -0.484 OA
ENDROOT
BRANCH   1  13
ATOM     13  C   UNL     1      -2.364  -0.289   0.000  1.00  0.00    -0.007 A 
ATOM     14  C   UNL     1      -5.322   0.210   0.000  1.00  0.00     0.118 A 
ATOM     15  C   UNL     1      -4.366   1.366   0.000  1.00  0.00     0.047 A 
ATOM     16  C   UNL     1      -4.798  -1.196   0.000  1.00  0.00     0.047 A 
ATOM     17  C   UNL     1      -2.887   1.117   0.000  1.00  0.00     0.011 A 
ATOM     18  C   UNL     1      -3.319  -1.445   0.000  1.00  0.00     0.011 A 
BRANCH  14  19
ATOM     19  O   UNL     1      -6.801   0.460   0.000  1.00  0.00    -0.497 OA
ATOM     20  C   UNL     1      -7.324   1.865   0.000  1.00  0.00     0.278 C 
ENDBRANCH  14  19
ENDBRANCH   1  13
BRANCH   6  21
ATOM     21  O   UNL     1       4.076  -2.692   0.000  1.00  0.00    -0.507 OA
ATOM     22  H   UNL     1       0.000   0.000   0.000  1.00  0.00     0.293 HD
ENDBRANCH   6  21
BRANCH   8  23
ATOM     23  O   UNL     1       4.941   2.432   0.000  1.00  0.00    -0.496 OA
ATOM     24  C   UNL     1       6.420   2.182   0.000  1.00  0.00     0.278 C 
ENDBRANCH   8  23
TORSDOF 4
