REMARK SMILES COc1ccc(-c2cc(=O)c3c(O)cc(OC)c(-c4cc(-c5cc(=O)c6c(O)cc(OC)cc6o5)ccc4O)c3o2)cc1
REMARK SMILES IDX 7 1 8 2 9 3 10 4 11 5 12 6 14 7 15 8 18 9 40 10 41 11 6 12
REMARK SMILES IDX 3 13 4 14 43 15 5 16 42 17 2 18 1 19 19 20 20 21 38 22 21 23
REMARK SMILES IDX 37 24 36 25 39 26 22 28 23 29 35 30 24 31 34 32 26 33 33 34
REMARK SMILES IDX 27 35 30 36 29 37 25 38 28 39 31 41 32 42 13 43 16 45 17 46
REMARK H PARENT 39 27 28 40 13 44
ROOT
ATOM      1  C   UNL     1       5.018   0.115   0.000  1.00  0.00     0.138 A 
ATOM      2  C   UNL     1       5.913   1.318   0.000  1.00  0.00     0.100 A 
ATOM      3  C   UNL     1       5.319   2.695   0.000  1.00  0.00     0.197 A 
ATOM      4  O   UNL     1       6.214   3.899   0.000  1.00  0.00    -0.289 OA
ATOM      5  C   UNL     1       3.829   2.869   0.000  1.00  0.00     0.107 A 
ATOM      6  C   UNL     1       3.234   4.246   0.000  1.00  0.00     0.134 A 
ATOM      7  C   UNL     1       1.744   4.420   0.000  1.00  0.00     0.094 A 
ATOM      8  C   UNL     1       0.849   3.216   0.000  1.00  0.00     0.134 A 
ATOM      9  C   UNL     1       1.444   1.839   0.000  1.00  0.00     0.071 A 
ATOM     10  C   UNL     1       2.933   1.665   0.000  1.00  0.00     0.154 A 
ATOM     11  O   UNL     1       3.528   0.288   0.000  1.00  0.00    -0.455 OA
ENDROOT
BRANCH   1  12
ATOM     12  C   UNL     1       5.612  -1.262   0.000  1.00  0.00     0.018 A 
ATOM     13  C   UNL     1       6.802  -4.017   0.000  1.00  0.00     0.118 A 
ATOM     14  C   UNL     1       5.312  -3.843   0.000  1.00  0.00     0.047 A 
ATOM     15  C   UNL     1       7.697  -2.813   0.000  1.00  0.00     0.047 A 
ATOM     16  C   UNL     1       4.717  -2.466   0.000  1.00  0.00     0.016 A 
ATOM     17  C   UNL     1       7.102  -1.436   0.000  1.00  0.00     0.016 A 
BRANCH  13  18
ATOM     18  O   UNL     1       7.396  -5.394   0.000  1.00  0.00    -0.497 OA
ATOM     19  C   UNL     1       6.501  -6.597   0.000  1.00  0.00     0.278 C 
ENDBRANCH  13  18
ENDBRANCH   1  12
BRANCH   9  20
ATOM     20  C   UNL     1       0.548   0.636   0.000  1.00  0.00     0.032 A 
ATOM     21  C   UNL     1      -0.942   0.809   0.000  1.00  0.00     0.024 A 
ATOM     22  C   UNL     1       1.143  -0.742   0.000  1.00  0.00     0.123 A 
ATOM     23  C   UNL     1      -1.837  -0.394   0.000  1.00  0.00     0.018 A 
ATOM     24  C   UNL     1       0.247  -1.945   0.000  1.00  0.00     0.047 A 
ATOM     25  C   UNL     1      -1.242  -1.771   0.000  1.00  0.00     0.016 A 
BRANCH  22  26
ATOM     26  O   UNL     1       2.633  -0.915   0.000  1.00  0.00    -0.507 OA
ATOM     27  H   UNL     1       0.000   0.000   0.000  1.00  0.00     0.293 HD
ENDBRANCH  22  26
BRANCH  23  28
ATOM     28  C   UNL     1      -3.327  -0.221   0.000  1.00  0.00     0.138 A 
ATOM     29  C   UNL     1      -3.921   1.157   0.000  1.00  0.00     0.100 A 
ATOM     30  O   UNL     1      -4.222  -1.424   0.000  1.00  0.00    -0.456 OA
ATOM     31  C   UNL     1      -5.411   1.330   0.000  1.00  0.00     0.197 A 
ATOM     32  C   UNL     1      -5.712  -1.250   0.000  1.00  0.00     0.146 A 
ATOM     33  C   UNL     1      -6.307   0.127   0.000  1.00  0.00     0.107 A 
ATOM     34  C   UNL     1      -6.608  -2.454   0.000  1.00  0.00     0.094 A 
ATOM     35  C   UNL     1      -7.797   0.300   0.000  1.00  0.00     0.134 A 
ATOM     36  C   UNL     1      -8.098  -2.280   0.000  1.00  0.00     0.126 A 
ATOM     37  C   UNL     1      -8.692  -0.903   0.000  1.00  0.00     0.093 A 
ATOM     38  O   UNL     1      -6.006   2.707   0.000  1.00  0.00    -0.289 OA
BRANCH  35  39
ATOM     39  O   UNL     1      -8.391   1.678   0.000  1.00  0.00    -0.507 OA
ATOM     40  H   UNL     1       0.000   0.000   0.000  1.00  0.00     0.293 HD
ENDBRANCH  35  39
BRANCH  36  41
ATOM     41  O   UNL     1      -8.993  -3.484   0.000  1.00  0.00    -0.496 OA
ATOM     42  C   UNL     1     -10.483  -3.310   0.000  1.00  0.00     0.278 C 
ENDBRANCH  36  41
ENDBRANCH  23  28
ENDBRANCH   9  20
BRANCH   6  43
ATOM     43  O   UNL     1       4.130   5.449   0.000  1.00  0.00    -0.507 OA
ATOM     44  H   UNL     1       0.000   0.000   0.000  1.00  0.00     0.293 HD
ENDBRANCH   6  43
BRANCH   8  45
ATOM     45  O   UNL     1      -0.641   3.390   0.000  1.00  0.00    -0.496 OA
ATOM     46  C   UNL     1      -1.236   4.767   0.000  1.00  0.00     0.278 C 
ENDBRANCH   8  45
TORSDOF 9
