REMARK SMILES CC(=O)O[C@H]1CC[C@]2(C)[C@H]3CC[C@@]4(C)[C@@H]5[C@@H](C)[C@H](C)CC[C@]5(C)CC[C@]4(C)C3=CC[C@H]2C1(C)C
REMARK SMILES IDX 4 1 2 2 1 3 3 4 5 5 6 6 32 7 7 8 31 9 8 10 30 11 10 12 29 13
REMARK SMILES IDX 11 14 28 15 12 16 26 17 13 18 25 19 15 20 24 21 16 22 22 23
REMARK SMILES IDX 18 24 21 25 20 26 33 27 34 28 9 29 27 30 14 31 17 32 23 33
REMARK SMILES IDX 19 34
REMARK H PARENT
ROOT
ATOM      1  O   UNL     1      -6.587   0.077   0.000  1.00  0.00    -0.462 OA
ENDROOT
BRANCH   1   2
ATOM      2  C   UNL     1      -7.363   1.361   0.000  1.00  0.00     0.302 C 
ATOM      3  C   UNL     1      -8.863   1.330   0.000  1.00  0.00     0.139 C 
ATOM      4  O   UNL     1      -6.640   2.675   0.000  1.00  0.00    -0.253 OA
ENDBRANCH   1   2
BRANCH   1   5
ATOM      5  C   UNL     1      -5.087   0.108   0.000  1.00  0.00     0.182 C 
ATOM      6  C   UNL     1      -4.364   1.422   0.000  1.00  0.00     0.046 C 
ATOM      7  C   UNL     1      -4.311  -1.176   0.000  1.00  0.00     0.005 C 
ATOM      8  C   UNL     1      -2.864   1.452   0.000  1.00  0.00     0.011 C 
ATOM      9  C   UNL     1      -2.811  -1.145   0.000  1.00  0.00     0.009 C 
ATOM     10  C   UNL     1      -2.088   0.169   0.000  1.00  0.00    -0.022 C 
ATOM     11  C   UNL     1      -2.035  -2.429   0.000  1.00  0.00     0.032 C 
ATOM     12  C   UNL     1      -0.588   0.199   0.000  1.00  0.00     0.021 C 
ATOM     13  C   UNL     1      -0.535  -2.398   0.000  1.00  0.00    -0.027 C 
ATOM     14  C   UNL     1       0.135   1.514   0.000  1.00  0.00     0.009 C 
ATOM     15  C   UNL     1       0.188  -1.084   0.000  1.00  0.00    -0.064 C 
ATOM     16  C   UNL     1       1.635   1.544   0.000  1.00  0.00     0.008 C 
ATOM     17  C   UNL     1       1.688  -1.054   0.000  1.00  0.00    -0.006 C 
ATOM     18  C   UNL     1       2.411   0.261   0.000  1.00  0.00    -0.020 C 
ATOM     19  C   UNL     1       2.464  -2.337   0.000  1.00  0.00     0.012 C 
ATOM     20  C   UNL     1       3.911   0.291   0.000  1.00  0.00     0.005 C 
ATOM     21  C   UNL     1       3.964  -2.306   0.000  1.00  0.00     0.008 C 
ATOM     22  C   UNL     1       4.634   1.605   0.000  1.00  0.00    -0.007 C 
ATOM     23  C   UNL     1       4.687  -0.992   0.000  1.00  0.00    -0.029 C 
ATOM     24  C   UNL     1       6.134   1.636   0.000  1.00  0.00    -0.011 C 
ATOM     25  C   UNL     1       6.187  -0.962   0.000  1.00  0.00     0.007 C 
ATOM     26  C   UNL     1       6.910   0.352   0.000  1.00  0.00     0.004 C 
ATOM     27  C   UNL     1      -4.020  -2.647   0.000  1.00  0.00     0.015 C 
ATOM     28  C   UNL     1      -5.710  -1.718   0.000  1.00  0.00     0.015 C 
ATOM     29  C   UNL     1      -1.364   1.483   0.000  1.00  0.00     0.012 C 
ATOM     30  C   UNL     1       0.965  -2.368   0.000  1.00  0.00     0.017 C 
ATOM     31  C   UNL     1       3.135   1.575   0.000  1.00  0.00     0.012 C 
ATOM     32  C   UNL     1       3.858   2.889   0.000  1.00  0.00     0.008 C 
ATOM     33  C   UNL     1       5.464  -2.276   0.000  1.00  0.00     0.011 C 
ATOM     34  C   UNL     1       6.857   2.950   0.000  1.00  0.00     0.008 C 
ENDBRANCH   1   5
TORSDOF 2
