REMARK SMILES COc1cc2c3c(cc4cc5c(cc4c3c1OC)OCO5)N(C)CC2
REMARK SMILES IDX 3 1 4 2 5 3 6 4 7 5 8 6 9 7 10 8 11 9 12 10 13 11 14 12
REMARK SMILES IDX 15 13 16 14 19 15 20 16 21 17 22 18 23 19 24 20 25 21 2 22
REMARK SMILES IDX 1 23 17 24 18 25
REMARK H PARENT
ROOT
ATOM      1  C   UNL     1       2.217  -2.308   0.000  1.00  0.00     0.161 A 
ATOM      2  C   UNL     1       3.360  -1.337   0.000  1.00  0.00     0.055 A 
ATOM      3  C   UNL     1       3.090   0.139   0.000  1.00  0.00    -0.032 A 
ATOM      4  C   UNL     1       1.677   0.642   0.000  1.00  0.00     0.013 A 
ATOM      5  C   UNL     1       1.407   2.118   0.000  1.00  0.00     0.045 A 
ATOM      6  C   UNL     1      -0.006   2.622   0.000  1.00  0.00     0.035 A 
ATOM      7  C   UNL     1      -1.149   1.650   0.000  1.00  0.00    -0.012 A 
ATOM      8  C   UNL     1      -2.562   2.154   0.000  1.00  0.00     0.059 A 
ATOM      9  C   UNL     1      -3.704   1.182   0.000  1.00  0.00     0.166 A 
ATOM     10  C   UNL     1      -3.434  -0.293   0.000  1.00  0.00     0.166 A 
ATOM     11  C   UNL     1      -2.021  -0.797   0.000  1.00  0.00     0.060 A 
ATOM     12  C   UNL     1      -0.879   0.175   0.000  1.00  0.00    -0.003 A 
ATOM     13  C   UNL     1       0.534  -0.329   0.000  1.00  0.00     0.038 A 
ATOM     14  C   UNL     1       0.804  -1.805   0.000  1.00  0.00     0.169 A 
ATOM     15  O   UNL     1      -4.754  -1.006   0.000  1.00  0.00    -0.454 OA
ATOM     16  C   UNL     1      -5.840   0.029   0.000  1.00  0.00     0.468 C 
ATOM     17  O   UNL     1      -5.191   1.381   0.000  1.00  0.00    -0.454 OA
ATOM     18  N   UNL     1       2.550   3.090   0.000  1.00  0.00    -0.374 N 
ATOM     19  C   UNL     1       2.280   4.565   0.000  1.00  0.00     0.143 C 
ATOM     20  C   UNL     1       3.963   2.586   0.000  1.00  0.00     0.121 C 
ATOM     21  C   UNL     1       4.233   1.110   0.000  1.00  0.00     0.058 C 
ENDROOT
BRANCH   1  22
ATOM     22  O   UNL     1       2.487  -3.784   0.000  1.00  0.00    -0.493 OA
ATOM     23  C   UNL     1       1.345  -4.756   0.000  1.00  0.00     0.278 C 
ENDBRANCH   1  22
BRANCH  14  24
ATOM     24  O   UNL     1      -0.338  -2.776   0.000  1.00  0.00    -0.492 OA
ATOM     25  C   UNL     1      -0.068  -4.252   0.000  1.00  0.00     0.278 C 
ENDBRANCH  14  24
TORSDOF 2
