REMARK SMILES COc1c(CC=C(C)C)c2c(c3oc(=O)c(-c4ccc(O)cc4)c(O)c13)C=CC(C)(C)O2
REMARK SMILES IDX 3 1 4 2 10 3 11 4 27 5 28 6 29 7 30 8 31 9 32 10 12 11 26 12
REMARK SMILES IDX 24 13 16 14 14 15 15 16 13 17 2 18 1 19 5 20 6 21 7 22 8 23
REMARK SMILES IDX 9 24 25 25 17 27 18 28 23 29 19 30 22 31 20 32 21 33
REMARK H PARENT 25 26 21 34
ROOT
ATOM      1  C   UNL     1       0.923   0.987   0.000  1.00  0.00     0.140 A 
ATOM      2  C   UNL     1       2.354   0.537   0.000  1.00  0.00     0.042 A 
ATOM      3  C   UNL     1       2.680  -0.927   0.000  1.00  0.00     0.138 A 
ATOM      4  C   UNL     1       1.575  -1.942   0.000  1.00  0.00     0.061 A 
ATOM      5  C   UNL     1       1.901  -3.406   0.000  1.00  0.00     0.015 C 
ATOM      6  C   UNL     1       3.331  -3.856   0.000  1.00  0.00     0.021 C 
ATOM      7  C   UNL     1       4.436  -2.841   0.000  1.00  0.00     0.122 C 
ATOM      8  C   UNL     1       5.822  -2.266   0.000  1.00  0.00     0.061 C 
ATOM      9  C   UNL     1       5.244  -4.106   0.000  1.00  0.00     0.061 C 
ATOM     10  O   UNL     1       4.111  -1.377   0.000  1.00  0.00    -0.483 OA
ATOM     11  C   UNL     1       0.144  -1.492   0.000  1.00  0.00     0.156 A 
ATOM     12  C   UNL     1      -0.182  -0.028   0.000  1.00  0.00     0.103 A 
ATOM     13  C   UNL     1      -1.613   0.422   0.000  1.00  0.00     0.145 A 
ATOM     14  C   UNL     1      -2.718  -0.592   0.000  1.00  0.00     0.110 A 
ATOM     15  C   UNL     1      -2.392  -2.056   0.000  1.00  0.00     0.348 A 
ATOM     16  O   UNL     1      -3.498  -3.071   0.000  1.00  0.00    -0.246 OA
ATOM     17  O   UNL     1      -0.962  -2.506   0.000  1.00  0.00    -0.421 OA
ENDROOT
BRANCH   1  18
ATOM     18  O   UNL     1       0.597   2.451   0.000  1.00  0.00    -0.495 OA
ATOM     19  C   UNL     1       1.702   3.465   0.000  1.00  0.00     0.278 C 
ENDBRANCH   1  18
BRANCH   2  20
ATOM     20  C   UNL     1       3.459   1.551   0.000  1.00  0.00     0.070 C 
BRANCH  20  21
ATOM     21  C   UNL     1       3.133   3.015   0.000  1.00  0.00    -0.023 C 
BRANCH  21  22
ATOM     22  C   UNL     1       4.238   4.029   0.000  1.00  0.00    -0.080 C 
ATOM     23  C   UNL     1       3.912   5.494   0.000  1.00  0.00     0.039 C 
ATOM     24  C   UNL     1       5.669   3.580   0.000  1.00  0.00     0.039 C 
ENDBRANCH  21  22
ENDBRANCH  20  21
ENDBRANCH   2  20
BRANCH  13  25
ATOM     25  O   UNL     1      -1.939   1.886   0.000  1.00  0.00    -0.506 OA
ATOM     26  H   UNL     1       0.000   0.000   0.000  1.00  0.00     0.293 HD
ENDBRANCH  13  25
BRANCH  14  27
ATOM     27  C   UNL     1      -4.149  -0.142   0.000  1.00  0.00    -0.007 A 
ATOM     28  C   UNL     1      -4.475   1.322   0.000  1.00  0.00     0.013 A 
ATOM     29  C   UNL     1      -5.254  -1.157   0.000  1.00  0.00     0.013 A 
ATOM     30  C   UNL     1      -5.906   1.772   0.000  1.00  0.00     0.047 A 
ATOM     31  C   UNL     1      -6.685  -0.707   0.000  1.00  0.00     0.047 A 
ATOM     32  C   UNL     1      -7.011   0.757   0.000  1.00  0.00     0.115 A 
BRANCH  32  33
ATOM     33  O   UNL     1      -8.442   1.207   0.000  1.00  0.00    -0.508 OA
ATOM     34  H   UNL     1       0.000   0.000   0.000  1.00  0.00     0.293 HD
ENDBRANCH  32  33
ENDBRANCH  14  27
TORSDOF 7
