REMARK SMILES COc1ccc(CCCc2cc3c(cc2O)OCO3)cc1
REMARK SMILES IDX 8 1 7 2 6 3 3 4 4 5 21 6 5 7 20 8 2 9 1 10 9 11 10 12 11 13
REMARK SMILES IDX 15 14 12 15 14 16 13 17 19 18 17 19 18 20 16 21
REMARK H PARENT 16 22
ROOT
ATOM      1  C   UNL     1       0.369   0.886   0.000  1.00  0.00     0.010 C 
ENDROOT
BRANCH   1   2
ATOM      2  C   UNL     1       1.611   1.727   0.000  1.00  0.00     0.036 C 
BRANCH   2   3
ATOM      3  C   UNL     1       2.960   1.072   0.000  1.00  0.00    -0.048 A 
ATOM      4  C   UNL     1       5.659  -0.237   0.000  1.00  0.00     0.118 A 
ATOM      5  C   UNL     1       4.417  -1.079   0.000  1.00  0.00     0.046 A 
ATOM      6  C   UNL     1       5.551   1.259   0.000  1.00  0.00     0.046 A 
ATOM      7  C   UNL     1       3.068  -0.424   0.000  1.00  0.00     0.007 A 
ATOM      8  C   UNL     1       4.202   1.914   0.000  1.00  0.00     0.007 A 
BRANCH   4   9
ATOM      9  O   UNL     1       7.009  -0.892   0.000  1.00  0.00    -0.497 OA
ATOM     10  C   UNL     1       7.116  -2.388   0.000  1.00  0.00     0.278 C 
ENDBRANCH   4   9
ENDBRANCH   2   3
ENDBRANCH   1   2
BRANCH   1  11
ATOM     11  C   UNL     1      -0.981   1.541   0.000  1.00  0.00     0.040 C 
BRANCH  11  12
ATOM     12  C   UNL     1      -2.223   0.699   0.000  1.00  0.00    -0.002 A 
ATOM     13  C   UNL     1      -3.572   1.354   0.000  1.00  0.00     0.058 A 
ATOM     14  C   UNL     1      -2.115  -0.797   0.000  1.00  0.00     0.122 A 
ATOM     15  C   UNL     1      -4.814   0.513   0.000  1.00  0.00     0.166 A 
ATOM     16  C   UNL     1      -3.357  -1.638   0.000  1.00  0.00     0.097 A 
ATOM     17  C   UNL     1      -4.706  -0.983   0.000  1.00  0.00     0.169 A 
ATOM     18  O   UNL     1      -6.270   0.873   0.000  1.00  0.00    -0.454 OA
ATOM     19  O   UNL     1      -6.096  -1.548   0.000  1.00  0.00    -0.453 OA
ATOM     20  C   UNL     1      -7.062  -0.401   0.000  1.00  0.00     0.468 C 
BRANCH  14  21
ATOM     21  O   UNL     1      -0.765  -1.452   0.000  1.00  0.00    -0.508 OA
ATOM     22  H   UNL     1       0.000   0.000   0.000  1.00  0.00     0.293 HD
ENDBRANCH  14  21
ENDBRANCH  11  12
ENDBRANCH   1  11
TORSDOF 6
