REMARK SMILES COC(=O)C1=CO[C@@H](O[C@@H]2O[C@H](CO)[C@@H](O)[C@H](O)[C@H]2O)[C@@H]2C(CO)=C[C@H](O)[C@H]12
REMARK SMILES IDX 9 1 8 2 5 3 6 4 28 5 7 6 26 7 21 8 25 9 22 10 3 11 4 12 2 13
REMARK SMILES IDX 1 14 27 15 23 17 24 18 10 20 11 21 19 22 12 23 17 24 15 25
REMARK SMILES IDX 20 26 13 28 14 29 18 31 16 33
REMARK H PARENT 27 16 24 19 20 27 14 30 18 32 16 34
ROOT
ATOM      1  O   UNL     1      -1.049   1.112   0.000  1.00  0.00    -0.310 OA
ENDROOT
BRANCH   1   2
ATOM      2  C   UNL     1       0.275   0.407   0.000  1.00  0.00     0.317 C 
ATOM      3  C   UNL     1       2.923  -1.003   0.000  1.00  0.00     0.079 C 
ATOM      4  C   UNL     1       1.651  -1.797   0.000  1.00  0.00     0.202 C 
ATOM      5  C   UNL     1       2.872   0.496   0.000  1.00  0.00     0.076 C 
ATOM      6  O   UNL     1       0.327  -1.092   0.000  1.00  0.00    -0.471 OA
ATOM      7  C   UNL     1       3.952   1.537   0.000  1.00  0.00     0.146 C 
ATOM      8  C   UNL     1       1.548   1.201   0.000  1.00  0.00     0.097 C 
ATOM      9  C   UNL     1       3.295   2.886   0.000  1.00  0.00     0.007 C 
ATOM     10  C   UNL     1       1.809   2.678   0.000  1.00  0.00    -0.036 C 
BRANCH   3  11
ATOM     11  C   UNL     1       4.247  -1.708   0.000  1.00  0.00     0.337 C 
ATOM     12  O   UNL     1       5.520  -0.914   0.000  1.00  0.00    -0.246 OA
BRANCH  11  13
ATOM     13  O   UNL     1       4.299  -3.207   0.000  1.00  0.00    -0.466 OA
ATOM     14  C   UNL     1       5.623  -3.912   0.000  1.00  0.00     0.282 C 
ENDBRANCH  11  13
ENDBRANCH   3  11
BRANCH   7  15
ATOM     15  O   UNL     1       5.429   1.276   0.000  1.00  0.00    -0.388 OA
ATOM     16  H   UNL     1       0.000   0.000   0.000  1.00  0.00     0.211 HD
ENDBRANCH   7  15
BRANCH  10  17
ATOM     17  C   UNL     1       0.768   3.758   0.000  1.00  0.00     0.187 C 
BRANCH  17  18
ATOM     18  O   UNL     1       1.182   5.199   0.000  1.00  0.00    -0.392 OA
ATOM     19  H   UNL     1       0.000   0.000   0.000  1.00  0.00     0.211 HD
ENDBRANCH  17  18
ENDBRANCH  10  17
ENDBRANCH   1   2
BRANCH   1  20
ATOM     20  C   UNL     1      -2.321   0.318   0.000  1.00  0.00     0.286 C 
ATOM     21  O   UNL     1      -3.645   1.023   0.000  1.00  0.00    -0.341 OA
ATOM     22  C   UNL     1      -2.270  -1.181   0.000  1.00  0.00     0.202 C 
ATOM     23  C   UNL     1      -4.918   0.229   0.000  1.00  0.00     0.178 C 
ATOM     24  C   UNL     1      -3.542  -1.976   0.000  1.00  0.00     0.179 C 
ATOM     25  C   UNL     1      -4.866  -1.270   0.000  1.00  0.00     0.177 C 
BRANCH  22  26
ATOM     26  O   UNL     1      -0.946  -1.886   0.000  1.00  0.00    -0.385 OA
ATOM     27  H   UNL     1       0.000   0.000   0.000  1.00  0.00     0.211 HD
ENDBRANCH  22  26
BRANCH  23  28
ATOM     28  C   UNL     1      -6.242   0.934   0.000  1.00  0.00     0.191 C 
BRANCH  28  29
ATOM     29  O   UNL     1      -6.293   2.433   0.000  1.00  0.00    -0.394 OA
ATOM     30  H   UNL     1       0.000   0.000   0.000  1.00  0.00     0.210 HD
ENDBRANCH  28  29
ENDBRANCH  23  28
BRANCH  24  31
ATOM     31  O   UNL     1      -3.491  -3.475   0.000  1.00  0.00    -0.387 OA
ATOM     32  H   UNL     1       0.000   0.000   0.000  1.00  0.00     0.211 HD
ENDBRANCH  24  31
BRANCH  25  33
ATOM     33  O   UNL     1      -6.139  -2.065   0.000  1.00  0.00    -0.387 OA
ATOM     34  H   UNL     1       0.000   0.000   0.000  1.00  0.00     0.211 HD
ENDBRANCH  25  33
ENDBRANCH   1  20
TORSDOF 12
