REMARK SMILES COC(=O)[C@]1(C)CC[C@]2(C)CC[C@]3(C)C4=CC=C5C(=CC(=O)C(O)=C5C)[C@]4(C)CC[C@@]3(C)[C@@H]2C1
REMARK SMILES IDX 5 1 6 2 7 3 8 4 9 5 10 6 11 7 12 8 13 9 14 10 15 11 16 12
REMARK SMILES IDX 17 13 18 14 19 15 20 16 21 17 22 18 23 19 25 20 26 21 27 22
REMARK SMILES IDX 28 23 29 24 30 25 31 26 32 27 33 28 34 29 3 30 4 31 2 32
REMARK SMILES IDX 1 33 24 34
REMARK H PARENT 24 35
ROOT
ATOM      1  C   UNL     1      -4.756  -0.931   0.000  1.00  0.00     0.066 C 
ATOM      2  C   UNL     1      -4.639  -2.426   0.000  1.00  0.00     0.024 C 
ATOM      3  C   UNL     1      -5.377   0.434   0.000  1.00  0.00     0.019 C 
ATOM      4  C   UNL     1      -4.506   1.655   0.000  1.00  0.00     0.008 C 
ATOM      5  C   UNL     1      -3.013   1.511   0.000  1.00  0.00    -0.029 C 
ATOM      6  C   UNL     1      -3.634   2.876   0.000  1.00  0.00     0.011 C 
ATOM      7  C   UNL     1      -2.141   2.732   0.000  1.00  0.00     0.008 C 
ATOM      8  C   UNL     1      -0.648   2.587   0.000  1.00  0.00     0.012 C 
ATOM      9  C   UNL     1      -0.027   1.222   0.000  1.00  0.00    -0.005 C 
ATOM     10  C   UNL     1       0.845   2.443   0.000  1.00  0.00     0.017 C 
ATOM     11  C   UNL     1       1.466   1.077   0.000  1.00  0.00    -0.053 C 
ATOM     12  C   UNL     1       2.338   2.298   0.000  1.00  0.00     0.001 C 
ATOM     13  C   UNL     1       3.831   2.154   0.000  1.00  0.00     0.009 C 
ATOM     14  C   UNL     1       4.452   0.789   0.000  1.00  0.00    -0.015 C 
ATOM     15  C   UNL     1       3.581  -0.432   0.000  1.00  0.00    -0.026 C 
ATOM     16  C   UNL     1       4.202  -1.797   0.000  1.00  0.00     0.061 C 
ATOM     17  C   UNL     1       5.695  -1.942   0.000  1.00  0.00     0.220 C 
ATOM     18  O   UNL     1       6.317  -3.307   0.000  1.00  0.00    -0.286 OA
ATOM     19  C   UNL     1       6.567  -0.721   0.000  1.00  0.00     0.166 C 
ATOM     20  C   UNL     1       5.945   0.644   0.000  1.00  0.00     0.002 C 
ATOM     21  C   UNL     1       6.817   1.865   0.000  1.00  0.00     0.049 C 
ATOM     22  C   UNL     1       2.088  -0.288   0.000  1.00  0.00     0.015 C 
ATOM     23  C   UNL     1       2.709  -1.653   0.000  1.00  0.00     0.021 C 
ATOM     24  C   UNL     1       1.216  -1.508   0.000  1.00  0.00     0.016 C 
ATOM     25  C   UNL     1      -0.277  -1.364   0.000  1.00  0.00     0.009 C 
ATOM     26  C   UNL     1      -0.898   0.001   0.000  1.00  0.00    -0.020 C 
ATOM     27  C   UNL     1      -1.770  -1.220   0.000  1.00  0.00     0.012 C 
ATOM     28  C   UNL     1      -2.391   0.145   0.000  1.00  0.00     0.003 C 
ATOM     29  C   UNL     1      -3.263  -1.075   0.000  1.00  0.00     0.023 C 
ENDROOT
BRANCH   1  30
ATOM     30  C   UNL     1      -6.208  -1.306   0.000  1.00  0.00     0.311 C 
ATOM     31  O   UNL     1      -6.610  -2.751   0.000  1.00  0.00    -0.252 OA
BRANCH  30  32
ATOM     32  O   UNL     1      -7.259  -0.236   0.000  1.00  0.00    -0.469 OA
ATOM     33  C   UNL     1      -8.712  -0.611   0.000  1.00  0.00     0.282 C 
ENDBRANCH  30  32
ENDBRANCH   1  30
BRANCH  19  34
ATOM     34  O   UNL     1       8.060  -0.865   0.000  1.00  0.00    -0.504 OA
ATOM     35  H   UNL     1       0.000   0.000   0.000  1.00  0.00     0.293 HD
ENDBRANCH  19  34
TORSDOF 3
