REMARK SMILES O=C(C1=Cc2ccc(O)c(O)c2CO1)c1ccc(O)cc1O
REMARK SMILES IDX 1 1 2 2 3 3 4 4 14 5 5 6 13 7 6 8 12 9 7 10 10 11 8 12 11 13
REMARK SMILES IDX 9 15 15 17 16 18 21 19 17 20 20 21 18 22 22 23 19 25
REMARK H PARENT 11 14 9 16 22 24 19 26
ROOT
ATOM      1  O   UNL     1      -1.610  -2.773   0.000  1.00  0.00    -0.285 OA
ATOM      2  C   UNL     1      -1.447  -1.282   0.000  1.00  0.00     0.231 C 
ENDROOT
BRANCH   2   3
ATOM      3  C   UNL     1      -0.074  -0.678   0.000  1.00  0.00     0.168 C 
ATOM      4  C   UNL     1       1.136  -1.564   0.000  1.00  0.00     0.059 C 
ATOM      5  O   UNL     1       0.089   0.813   0.000  1.00  0.00    -0.485 OA
ATOM      6  C   UNL     1       2.509  -0.960   0.000  1.00  0.00    -0.011 A 
ATOM      7  C   UNL     1       1.462   1.418   0.000  1.00  0.00     0.270 C 
ATOM      8  C   UNL     1       3.719  -1.846   0.000  1.00  0.00     0.013 A 
ATOM      9  C   UNL     1       2.671   0.531   0.000  1.00  0.00     0.042 A 
ATOM     10  C   UNL     1       5.091  -1.242   0.000  1.00  0.00     0.051 A 
ATOM     11  C   UNL     1       4.044   1.136   0.000  1.00  0.00     0.164 A 
ATOM     12  C   UNL     1       5.254   0.249   0.000  1.00  0.00     0.157 A 
BRANCH  11  13
ATOM     13  O   UNL     1       4.207   2.627   0.000  1.00  0.00    -0.504 OA
ATOM     14  H   UNL     1       0.000   0.000   0.000  1.00  0.00     0.293 HD
ENDBRANCH  11  13
BRANCH  12  15
ATOM     15  O   UNL     1       6.627   0.854   0.000  1.00  0.00    -0.504 OA
ATOM     16  H   UNL     1       0.000   0.000   0.000  1.00  0.00     0.293 HD
ENDBRANCH  12  15
ENDBRANCH   2   3
BRANCH   2  17
ATOM     17  C   UNL     1      -2.657  -0.396   0.000  1.00  0.00     0.068 A 
ATOM     18  C   UNL     1      -2.494   1.095   0.000  1.00  0.00     0.020 A 
ATOM     19  C   UNL     1      -4.029  -1.000   0.000  1.00  0.00     0.130 A 
ATOM     20  C   UNL     1      -3.704   1.982   0.000  1.00  0.00     0.047 A 
ATOM     21  C   UNL     1      -5.239  -0.114   0.000  1.00  0.00     0.093 A 
ATOM     22  C   UNL     1      -5.077   1.377   0.000  1.00  0.00     0.119 A 
BRANCH  19  23
ATOM     23  O   UNL     1      -4.192  -2.491   0.000  1.00  0.00    -0.507 OA
ATOM     24  H   UNL     1       0.000   0.000   0.000  1.00  0.00     0.293 HD
ENDBRANCH  19  23
BRANCH  22  25
ATOM     25  O   UNL     1      -6.287   2.264   0.000  1.00  0.00    -0.508 OA
ATOM     26  H   UNL     1       0.000   0.000   0.000  1.00  0.00     0.293 HD
ENDBRANCH  22  25
ENDBRANCH   2  17
TORSDOF 6
