REMARK SMILES COC(=O)C[C@H]1C(C)(C)C(=O)C=C2O[C@]3(C)C4=CC(=O)O[C@@H](c5ccoc5)[C@]4(C)CC[C@]3(O)[C@@]21C
REMARK SMILES IDX 5 1 3 2 4 3 2 4 1 5 6 6 7 7 34 8 10 9 32 10 13 11 12 12
REMARK SMILES IDX 31 13 15 14 14 15 30 16 17 17 28 18 18 19 22 20 19 21 21 22
REMARK SMILES IDX 8 23 9 24 35 25 11 26 16 27 29 28 20 29 33 30 23 32 27 33
REMARK SMILES IDX 24 34 26 35 25 36
REMARK H PARENT 33 31
ROOT
ATOM      1  C   UNL     1       2.986  -1.625   0.000  1.00  0.00     0.128 C 
ENDROOT
BRANCH   1   2
ATOM      2  C   UNL     1       4.257  -2.422   0.000  1.00  0.00     0.305 C 
ATOM      3  O   UNL     1       5.582  -1.719   0.000  1.00  0.00    -0.252 OA
BRANCH   2   4
ATOM      4  O   UNL     1       4.203  -3.921   0.000  1.00  0.00    -0.469 OA
ATOM      5  C   UNL     1       5.475  -4.717   0.000  1.00  0.00     0.282 C 
ENDBRANCH   2   4
ENDBRANCH   1   2
BRANCH   1   6
ATOM      6  C   UNL     1       3.040  -0.127   0.000  1.00  0.00     0.030 C 
ATOM      7  C   UNL     1       4.365   0.576   0.000  1.00  0.00     0.032 C 
ATOM      8  C   UNL     1       1.769   0.670   0.000  1.00  0.00     0.062 C 
ATOM      9  C   UNL     1       4.419   2.075   0.000  1.00  0.00     0.164 C 
ATOM     10  C   UNL     1       0.327   0.258   0.000  1.00  0.00     0.121 C 
ATOM     11  C   UNL     1       1.823   2.169   0.000  1.00  0.00     0.110 C 
ATOM     12  C   UNL     1       3.148   2.872   0.000  1.00  0.00     0.090 C 
ATOM     13  C   UNL     1      -0.333  -1.090   0.000  1.00  0.00     0.042 C 
ATOM     14  C   UNL     1      -0.511   1.502   0.000  1.00  0.00     0.157 C 
ATOM     15  O   UNL     1       0.414   2.683   0.000  1.00  0.00    -0.484 OA
ATOM     16  C   UNL     1      -1.829  -1.193   0.000  1.00  0.00     0.019 C 
ATOM     17  C   UNL     1      -2.007   1.399   0.000  1.00  0.00    -0.007 C 
ATOM     18  C   UNL     1      -2.666   0.052   0.000  1.00  0.00     0.035 C 
ATOM     19  C   UNL     1      -2.845   2.644   0.000  1.00  0.00     0.097 C 
ATOM     20  C   UNL     1      -4.163  -0.051   0.000  1.00  0.00     0.220 C 
ATOM     21  C   UNL     1      -4.341   2.541   0.000  1.00  0.00     0.331 C 
ATOM     22  O   UNL     1      -5.000   1.193   0.000  1.00  0.00    -0.453 OA
ATOM     23  C   UNL     1       4.827  -0.851   0.000  1.00  0.00     0.020 C 
ATOM     24  C   UNL     1       5.851   0.783   0.000  1.00  0.00     0.020 C 
ATOM     25  C   UNL     1       1.558  -0.815   0.000  1.00  0.00     0.023 C 
ATOM     26  O   UNL     1       5.744   2.778   0.000  1.00  0.00    -0.294 OA
ATOM     27  C   UNL     1      -1.214   2.828   0.000  1.00  0.00     0.065 C 
ATOM     28  C   UNL     1      -3.325  -1.296   0.000  1.00  0.00     0.020 C 
ATOM     29  O   UNL     1      -5.179   3.785   0.000  1.00  0.00    -0.247 OA
BRANCH  10  30
ATOM     30  O   UNL     1       0.537   1.743   0.000  1.00  0.00    -0.384 OA
ATOM     31  H   UNL     1       0.000   0.000   0.000  1.00  0.00     0.211 HD
ENDBRANCH  10  30
BRANCH  20  32
ATOM     32  C   UNL     1      -4.822  -1.399   0.000  1.00  0.00     0.032 A 
ATOM     33  C   UNL     1      -4.119  -2.724   0.000  1.00  0.00     0.202 A 
ATOM     34  C   UNL     1      -6.299  -1.658   0.000  1.00  0.00     0.049 A 
ATOM     35  O   UNL     1      -5.162  -3.802   0.000  1.00  0.00    -0.472 OA
ATOM     36  C   UNL     1      -6.510  -3.143   0.000  1.00  0.00     0.195 A 
ENDBRANCH  20  32
ENDBRANCH   1   6
TORSDOF 5
