REMARK SMILES COC(=O)c1coc(-c2ccc3[nH]ccc3c2)c1
REMARK SMILES IDX 5 1 6 2 7 3 8 4 18 5 3 6 4 7 2 8 1 9 9 10 10 11 17 12 11 13
REMARK SMILES IDX 16 14 12 15 15 16 13 17 14 18
REMARK H PARENT 13 19
ROOT
ATOM      1  C   UNL     1       2.974   0.503   0.000  1.00  0.00     0.098 A 
ATOM      2  C   UNL     1       2.502   1.927   0.000  1.00  0.00     0.211 A 
ATOM      3  O   UNL     1       1.002   1.918   0.000  1.00  0.00    -0.463 OA
ATOM      4  C   UNL     1       0.547   0.489   0.000  1.00  0.00     0.134 A 
ATOM      5  C   UNL     1       1.765  -0.386   0.000  1.00  0.00     0.066 A 
ENDROOT
BRANCH   1   6
ATOM      6  C   UNL     1       4.403   0.049   0.000  1.00  0.00     0.341 C 
ATOM      7  O   UNL     1       5.512   1.059   0.000  1.00  0.00    -0.246 OA
BRANCH   6   8
ATOM      8  O   UNL     1       4.724  -1.417   0.000  1.00  0.00    -0.465 OA
ATOM      9  C   UNL     1       6.153  -1.872   0.000  1.00  0.00     0.282 C 
ENDBRANCH   6   8
ENDBRANCH   1   6
BRANCH   4  10
ATOM     10  C   UNL     1      -0.877   0.017   0.000  1.00  0.00     0.018 A 
ATOM     11  C   UNL     1      -1.180  -1.452   0.000  1.00  0.00     0.014 A 
ATOM     12  C   UNL     1      -1.998   1.014   0.000  1.00  0.00     0.022 A 
ATOM     13  C   UNL     1      -2.604  -1.925   0.000  1.00  0.00     0.027 A 
ATOM     14  C   UNL     1      -3.422   0.541   0.000  1.00  0.00     0.000 A 
ATOM     15  C   UNL     1      -3.725  -0.928   0.000  1.00  0.00     0.045 A 
ATOM     16  C   UNL     1      -4.725   1.284   0.000  1.00  0.00     0.028 A 
ATOM     17  N   UNL     1      -5.215  -1.093   0.000  1.00  0.00    -0.361 N 
ATOM     18  C   UNL     1      -5.834   0.273   0.000  1.00  0.00     0.083 A 
ATOM     19  H   UNL     1       0.000   0.000   0.000  1.00  0.00     0.166 HD
ENDBRANCH   4  10
TORSDOF 3
