REMARK SMILES CCCCCCCCCc1cc(=O)c2ccccc2[nH]1
REMARK SMILES IDX 6 1 5 2 4 3 3 4 2 5 1 6 7 7 8 8 9 9 10 10 11 11 20 12 12 13
REMARK SMILES IDX 19 14 14 15 18 16 15 17 17 18 16 19 13 21
REMARK H PARENT 20 20
ROOT
ATOM      1  C   UNL     1      -3.515  -0.011   0.000  1.00  0.00     0.000 C 
ENDROOT
BRANCH   1   2
ATOM      2  C   UNL     1      -4.938  -0.486   0.000  1.00  0.00     0.000 C 
BRANCH   2   3
ATOM      3  C   UNL     1      -6.061   0.508   0.000  1.00  0.00    -0.000 C 
BRANCH   3   4
ATOM      4  C   UNL     1      -7.484   0.033   0.000  1.00  0.00    -0.000 C 
BRANCH   4   5
ATOM      5  C   UNL     1      -8.607   1.028   0.000  1.00  0.00    -0.003 C 
ATOM      6  C   UNL     1     -10.030   0.552   0.000  1.00  0.00     0.004 C 
ENDBRANCH   4   5
ENDBRANCH   3   4
ENDBRANCH   2   3
ENDBRANCH   1   2
BRANCH   1   7
ATOM      7  C   UNL     1      -2.392  -1.005   0.000  1.00  0.00     0.000 C 
BRANCH   7   8
ATOM      8  C   UNL     1      -0.970  -0.529   0.000  1.00  0.00     0.006 C 
BRANCH   8   9
ATOM      9  C   UNL     1       0.153  -1.524   0.000  1.00  0.00     0.054 C 
BRANCH   9  10
ATOM     10  C   UNL     1       1.576  -1.048   0.000  1.00  0.00     0.019 A 
ATOM     11  C   UNL     1       2.699  -2.043   0.000  1.00  0.00     0.074 A 
ATOM     12  N   UNL     1       1.876   0.421   0.000  1.00  0.00    -0.358 N 
ATOM     13  C   UNL     1       4.122  -1.567   0.000  1.00  0.00     0.189 A 
ATOM     14  C   UNL     1       3.298   0.897   0.000  1.00  0.00     0.049 A 
ATOM     15  C   UNL     1       4.421  -0.098   0.000  1.00  0.00     0.045 A 
ATOM     16  C   UNL     1       3.598   2.366   0.000  1.00  0.00     0.027 A 
ATOM     17  C   UNL     1       5.844   0.378   0.000  1.00  0.00     0.014 A 
ATOM     18  C   UNL     1       5.021   2.842   0.000  1.00  0.00     0.002 A 
ATOM     19  C   UNL     1       6.144   1.847   0.000  1.00  0.00     0.001 A 
ATOM     20  H   UNL     1       0.000   0.000   0.000  1.00  0.00     0.166 HD
ATOM     21  O   UNL     1       5.245  -2.562   0.000  1.00  0.00    -0.289 OA
ENDBRANCH   9  10
ENDBRANCH   8   9
ENDBRANCH   7   8
ENDBRANCH   1   7
TORSDOF 8
