REMARK SMILES O=C(CCCCc1ccc2c(c1)OCO2)N1CCCCC1
REMARK SMILES IDX 4 1 3 2 2 3 16 4 17 5 21 6 18 7 20 8 19 9 1 10 5 11 6 12
REMARK SMILES IDX 7 13 8 14 12 15 9 16 11 17 10 18 13 19 15 20 14 21
REMARK H PARENT
ROOT
ATOM      1  C   UNL     1       1.085   1.036   0.000  1.00  0.00     0.010 C 
ENDROOT
BRANCH   1   2
ATOM      2  C   UNL     1       2.358   0.242   0.000  1.00  0.00     0.100 C 
BRANCH   2   3
ATOM      3  C   UNL     1       3.682   0.948   0.000  1.00  0.00     0.222 C 
ATOM      4  N   UNL     1       4.955   0.155   0.000  1.00  0.00    -0.343 N 
ATOM      5  C   UNL     1       4.905  -1.344   0.000  1.00  0.00     0.119 C 
ATOM      6  C   UNL     1       6.279   0.861   0.000  1.00  0.00     0.119 C 
ATOM      7  C   UNL     1       6.178  -2.138   0.000  1.00  0.00     0.022 C 
ATOM      8  C   UNL     1       7.552   0.067   0.000  1.00  0.00     0.022 C 
ATOM      9  C   UNL     1       7.501  -1.432   0.000  1.00  0.00     0.004 C 
ATOM     10  O   UNL     1       3.732   2.447   0.000  1.00  0.00    -0.275 OA
ENDBRANCH   2   3
ENDBRANCH   1   2
BRANCH   1  11
ATOM     11  C   UNL     1      -0.238   0.330   0.000  1.00  0.00     0.005 C 
BRANCH  11  12
ATOM     12  C   UNL     1      -1.511   1.123   0.000  1.00  0.00     0.035 C 
BRANCH  12  13
ATOM     13  C   UNL     1      -2.835   0.417   0.000  1.00  0.00    -0.044 A 
ATOM     14  C   UNL     1      -2.885  -1.082   0.000  1.00  0.00     0.008 A 
ATOM     15  C   UNL     1      -4.108   1.210   0.000  1.00  0.00     0.054 A 
ATOM     16  C   UNL     1      -4.209  -1.788   0.000  1.00  0.00     0.051 A 
ATOM     17  C   UNL     1      -5.431   0.504   0.000  1.00  0.00     0.166 A 
ATOM     18  C   UNL     1      -5.482  -0.995   0.000  1.00  0.00     0.165 A 
ATOM     19  O   UNL     1      -6.841   1.016   0.000  1.00  0.00    -0.454 OA
ATOM     20  O   UNL     1      -6.923  -1.410   0.000  1.00  0.00    -0.454 OA
ATOM     21  C   UNL     1      -7.763  -0.167   0.000  1.00  0.00     0.468 C 
ENDBRANCH  12  13
ENDBRANCH  11  12
ENDBRANCH   1  11
TORSDOF 5
