REMARK SMILES Oc1cc(O)c2c(c1)O[C@H](c1ccc(O)c(O)c1)[C@H](O)[C@H]2c1c(O)cc(O)c2c1O[C@H](c1ccc(O)c(O)c1)[C@H](O)C2
REMARK SMILES IDX 2 1 3 2 4 3 6 4 7 5 8 6 9 7 10 8 19 9 21 10 1 11 5 13 22 15
REMARK SMILES IDX 23 16 29 17 25 18 28 19 30 20 26 21 42 22 31 23 40 24 24 25
REMARK SMILES IDX 27 27 32 29 33 30 39 31 34 32 37 33 35 34 38 35 36 37 41 39
REMARK SMILES IDX 11 41 12 42 18 43 13 44 16 45 14 46 17 47 15 49 20 51
REMARK H PARENT 1 12 5 14 24 26 27 28 38 36 36 38 41 40 17 48 15 50 20 52
ROOT
ATOM      1  C   UNL     1      -6.011  -2.429   0.000  1.00  0.00     0.122 A 
ATOM      2  C   UNL     1      -6.048  -0.930   0.000  1.00  0.00     0.092 A 
ATOM      3  C   UNL     1      -4.767  -0.148   0.000  1.00  0.00     0.126 A 
ATOM      4  C   UNL     1      -3.450  -0.866   0.000  1.00  0.00     0.047 A 
ATOM      5  C   UNL     1      -3.414  -2.366   0.000  1.00  0.00     0.131 A 
ATOM      6  C   UNL     1      -4.694  -3.147   0.000  1.00  0.00     0.093 A 
ATOM      7  O   UNL     1      -2.097  -3.084   0.000  1.00  0.00    -0.482 OA
ATOM      8  C   UNL     1      -0.817  -2.303   0.000  1.00  0.00     0.233 C 
ATOM      9  C   UNL     1      -0.853  -0.803   0.000  1.00  0.00     0.172 C 
ATOM     10  C   UNL     1      -2.170  -0.085   0.000  1.00  0.00     0.097 C 
ENDROOT
BRANCH   1  11
ATOM     11  O   UNL     1      -7.292  -3.211   0.000  1.00  0.00    -0.508 OA
ATOM     12  H   UNL     1       0.000   0.000   0.000  1.00  0.00     0.293 HD
ENDBRANCH   1  11
BRANCH   3  13
ATOM     13  O   UNL     1      -4.911   0.826   0.000  1.00  0.00    -0.507 OA
ATOM     14  H   UNL     1       0.000   0.000   0.000  1.00  0.00     0.293 HD
ENDBRANCH   3  13
BRANCH  10  15
ATOM     15  C   UNL     1      -2.207   1.415   0.000  1.00  0.00     0.047 A 
ATOM     16  C   UNL     1      -3.524   2.133   0.000  1.00  0.00     0.126 A 
ATOM     17  C   UNL     1      -0.926   2.196   0.000  1.00  0.00     0.135 A 
ATOM     18  C   UNL     1      -3.560   3.632   0.000  1.00  0.00     0.093 A 
ATOM     19  C   UNL     1      -0.963   3.696   0.000  1.00  0.00     0.039 A 
ATOM     20  O   UNL     1       0.391   1.478   0.000  1.00  0.00    -0.482 OA
ATOM     21  C   UNL     1      -2.280   4.414   0.000  1.00  0.00     0.126 A 
ATOM     22  C   UNL     1       0.318   4.477   0.000  1.00  0.00     0.079 C 
ATOM     23  C   UNL     1       1.671   2.259   0.000  1.00  0.00     0.232 C 
ATOM     24  C   UNL     1       1.635   3.759   0.000  1.00  0.00     0.164 C 
BRANCH  16  25
ATOM     25  O   UNL     1      -4.420   1.726   0.000  1.00  0.00    -0.507 OA
ATOM     26  H   UNL     1       0.000   0.000   0.000  1.00  0.00     0.293 HD
ENDBRANCH  16  25
BRANCH  21  27
ATOM     27  O   UNL     1      -2.316   5.913   0.000  1.00  0.00    -0.507 OA
ATOM     28  H   UNL     1       0.000   0.000   0.000  1.00  0.00     0.293 HD
ENDBRANCH  21  27
BRANCH  23  29
ATOM     29  C   UNL     1       2.988   1.541   0.000  1.00  0.00    -0.001 A 
ATOM     30  C   UNL     1       3.025   0.042   0.000  1.00  0.00     0.012 A 
ATOM     31  C   UNL     1       4.268   2.323   0.000  1.00  0.00     0.057 A 
ATOM     32  C   UNL     1       4.341  -0.676   0.000  1.00  0.00     0.050 A 
ATOM     33  C   UNL     1       5.585   1.605   0.000  1.00  0.00     0.157 A 
ATOM     34  C   UNL     1       5.622   0.105   0.000  1.00  0.00     0.157 A 
BRANCH  33  35
ATOM     35  O   UNL     1       6.866   2.386   0.000  1.00  0.00    -0.504 OA
ATOM     36  H   UNL     1       0.000   0.000   0.000  1.00  0.00     0.293 HD
ENDBRANCH  33  35
BRANCH  34  37
ATOM     37  O   UNL     1       6.939  -0.613   0.000  1.00  0.00    -0.504 OA
ATOM     38  H   UNL     1       0.000   0.000   0.000  1.00  0.00     0.293 HD
ENDBRANCH  34  37
ENDBRANCH  23  29
BRANCH  24  39
ATOM     39  O   UNL     1       2.915   4.540   0.000  1.00  0.00    -0.389 OA
ATOM     40  H   UNL     1       0.000   0.000   0.000  1.00  0.00     0.211 HD
ENDBRANCH  24  39
ENDBRANCH  10  15
BRANCH   8  41
ATOM     41  C   UNL     1       0.500  -3.021   0.000  1.00  0.00    -0.001 A 
ATOM     42  C   UNL     1       0.537  -4.520   0.000  1.00  0.00     0.012 A 
ATOM     43  C   UNL     1       1.781  -2.239   0.000  1.00  0.00     0.057 A 
ATOM     44  C   UNL     1       1.854  -5.238   0.000  1.00  0.00     0.050 A 
ATOM     45  C   UNL     1       3.098  -2.957   0.000  1.00  0.00     0.157 A 
ATOM     46  C   UNL     1       3.134  -4.457   0.000  1.00  0.00     0.157 A 
BRANCH  45  47
ATOM     47  O   UNL     1       4.378  -2.176   0.000  1.00  0.00    -0.504 OA
ATOM     48  H   UNL     1       0.000   0.000   0.000  1.00  0.00     0.293 HD
ENDBRANCH  45  47
BRANCH  46  49
ATOM     49  O   UNL     1       4.451  -5.175   0.000  1.00  0.00    -0.504 OA
ATOM     50  H   UNL     1       0.000   0.000   0.000  1.00  0.00     0.293 HD
ENDBRANCH  46  49
ENDBRANCH   8  41
BRANCH   9  51
ATOM     51  O   UNL     1       0.427  -0.022   0.000  1.00  0.00    -0.388 OA
ATOM     52  H   UNL     1       0.000   0.000   0.000  1.00  0.00     0.211 HD
ENDBRANCH   9  51
TORSDOF 13
