REMARK SMILES CCCOC(=O)c1cc(O)c(O)c(O)c1
REMARK SMILES IDX 4 1 3 2 2 3 1 4 5 5 6 6 7 7 8 8 15 9 9 10 13 11 11 12 10 13
REMARK SMILES IDX 14 15 12 17
REMARK H PARENT 10 14 14 16 12 18
ROOT
ATOM      1  O   UNL     1      -2.352   0.243   0.000  1.00  0.00    -0.462 OA
ENDROOT
BRANCH   1   2
ATOM      2  C   UNL     1      -3.797  -0.161   0.000  1.00  0.00     0.233 C 
BRANCH   2   3
ATOM      3  C   UNL     1      -4.868   0.889   0.000  1.00  0.00     0.038 C 
ATOM      4  C   UNL     1      -6.313   0.486   0.000  1.00  0.00     0.007 C 
ENDBRANCH   2   3
ENDBRANCH   1   2
BRANCH   1   5
ATOM      5  C   UNL     1      -1.280  -0.807   0.000  1.00  0.00     0.338 C 
ATOM      6  O   UNL     1      -1.653  -2.260   0.000  1.00  0.00    -0.246 OA
BRANCH   5   7
ATOM      7  C   UNL     1       0.165  -0.404   0.000  1.00  0.00     0.067 A 
ATOM      8  C   UNL     1       0.538   1.049   0.000  1.00  0.00     0.066 A 
ATOM      9  C   UNL     1       1.236  -1.453   0.000  1.00  0.00     0.066 A 
ATOM     10  C   UNL     1       1.982   1.452   0.000  1.00  0.00     0.162 A 
ATOM     11  C   UNL     1       2.681  -1.050   0.000  1.00  0.00     0.162 A 
ATOM     12  C   UNL     1       3.054   0.403   0.000  1.00  0.00     0.200 A 
BRANCH  10  13
ATOM     13  O   UNL     1       2.356   2.905   0.000  1.00  0.00    -0.504 OA
ATOM     14  H   UNL     1       0.000   0.000   0.000  1.00  0.00     0.293 HD
ENDBRANCH  10  13
BRANCH  11  15
ATOM     15  O   UNL     1       3.753  -2.100   0.000  1.00  0.00    -0.504 OA
ATOM     16  H   UNL     1       0.000   0.000   0.000  1.00  0.00     0.293 HD
ENDBRANCH  11  15
BRANCH  12  17
ATOM     17  O   UNL     1       4.499   0.806   0.000  1.00  0.00    -0.502 OA
ATOM     18  H   UNL     1       0.000   0.000   0.000  1.00  0.00     0.293 HD
ENDBRANCH  12  17
ENDBRANCH   5   7
ENDBRANCH   1   5
TORSDOF 7
