REMARK SMILES COc1cc(-c2oc3c(OC)c(OCC=C(C)C)cc(O)c3c(=O)c2OC)ccc1O
REMARK SMILES IDX 13 1 12 2 6 3 25 4 7 5 23 6 8 7 22 8 9 9 20 10 19 11 24 12
REMARK SMILES IDX 5 13 3 14 4 15 30 16 29 17 28 18 2 19 1 20 31 21 26 23 27 24
REMARK SMILES IDX 10 25 11 26 21 27 14 29 15 30 16 31 17 32 18 33
REMARK H PARENT 31 22 21 28
ROOT
ATOM      1  O   UNL     1       4.192   1.124   0.000  1.00  0.00    -0.485 OA
ENDROOT
BRANCH   1   2
ATOM      2  C   UNL     1       3.026   0.181   0.000  1.00  0.00     0.169 A 
ATOM      3  C   UNL     1      -2.108  -0.625   0.000  1.00  0.00     0.181 A 
ATOM      4  C   UNL     1      -1.875  -2.107   0.000  1.00  0.00     0.210 A 
ATOM      5  O   UNL     1      -0.941   0.318   0.000  1.00  0.00    -0.448 OA
ATOM      6  C   UNL     1      -0.475  -2.646   0.000  1.00  0.00     0.239 A 
ATOM      7  C   UNL     1       0.459  -0.222   0.000  1.00  0.00     0.188 A 
ATOM      8  C   UNL     1       0.692  -1.704   0.000  1.00  0.00     0.115 A 
ATOM      9  C   UNL     1       1.626   0.721   0.000  1.00  0.00     0.205 A 
ATOM     10  C   UNL     1       2.092  -2.243   0.000  1.00  0.00     0.134 A 
ATOM     11  C   UNL     1       3.259  -1.300   0.000  1.00  0.00     0.097 A 
ATOM     12  O   UNL     1      -0.242  -4.128   0.000  1.00  0.00    -0.285 OA
BRANCH   3  13
ATOM     13  C   UNL     1      -3.507  -0.086   0.000  1.00  0.00     0.025 A 
ATOM     14  C   UNL     1      -5.140   1.935   0.000  1.00  0.00     0.161 A 
ATOM     15  C   UNL     1      -3.740   1.396   0.000  1.00  0.00     0.062 A 
ATOM     16  C   UNL     1      -6.307   0.993   0.000  1.00  0.00     0.157 A 
ATOM     17  C   UNL     1      -6.074  -0.489   0.000  1.00  0.00     0.051 A 
ATOM     18  C   UNL     1      -4.674  -1.028   0.000  1.00  0.00     0.016 A 
BRANCH  14  19
ATOM     19  O   UNL     1      -5.373   3.417   0.000  1.00  0.00    -0.493 OA
ATOM     20  C   UNL     1      -4.206   4.360   0.000  1.00  0.00     0.278 C 
ENDBRANCH  14  19
BRANCH  16  21
ATOM     21  O   UNL     1      -7.706   1.532   0.000  1.00  0.00    -0.504 OA
ATOM     22  H   UNL     1       0.000   0.000   0.000  1.00  0.00     0.293 HD
ENDBRANCH  16  21
ENDBRANCH   3  13
BRANCH   4  23
ATOM     23  O   UNL     1      -3.042  -3.049   0.000  1.00  0.00    -0.490 OA
ATOM     24  C   UNL     1      -4.441  -2.510   0.000  1.00  0.00     0.278 C 
ENDBRANCH   4  23
BRANCH   9  25
ATOM     25  O   UNL     1       1.393   2.203   0.000  1.00  0.00    -0.490 OA
ATOM     26  C   UNL     1       2.560   3.145   0.000  1.00  0.00     0.278 C 
ENDBRANCH   9  25
BRANCH  10  27
ATOM     27  O   UNL     1       2.324  -3.725   0.000  1.00  0.00    -0.507 OA
ATOM     28  H   UNL     1       0.000   0.000   0.000  1.00  0.00     0.293 HD
ENDBRANCH  10  27
ENDBRANCH   1   2
BRANCH   1  29
ATOM     29  C   UNL     1       5.592   0.585   0.000  1.00  0.00     0.257 C 
BRANCH  29  30
ATOM     30  C   UNL     1       6.759   1.527   0.000  1.00  0.00     0.012 C 
BRANCH  30  31
ATOM     31  C   UNL     1       8.159   0.988   0.000  1.00  0.00    -0.077 C 
ATOM     32  C   UNL     1       9.326   1.931   0.000  1.00  0.00     0.039 C 
ATOM     33  C   UNL     1       8.392  -0.494   0.000  1.00  0.00     0.039 C 
ENDBRANCH  30  31
ENDBRANCH  29  30
ENDBRANCH   1  29
TORSDOF 10
