REMARK SMILES COc1ccc(-c2coc3cc4c(c(O)c3c2=O)C=CC(C)(C)O4)cc1
REMARK SMILES IDX 7 1 8 2 9 3 10 4 11 5 12 6 13 7 19 8 20 9 21 10 22 11 23 12
REMARK SMILES IDX 24 13 14 14 16 15 17 16 18 17 6 18 3 19 4 20 26 21 5 22
REMARK SMILES IDX 25 23 2 24 1 25 15 26
REMARK H PARENT 15 27
ROOT
ATOM      1  C   UNL     1      -1.813   0.668   0.000  1.00  0.00     0.065 A 
ATOM      2  C   UNL     1      -1.411   2.113   0.000  1.00  0.00     0.208 A 
ATOM      3  O   UNL     1       0.042   2.487   0.000  1.00  0.00    -0.463 OA
ATOM      4  C   UNL     1       1.092   1.417   0.000  1.00  0.00     0.145 A 
ATOM      5  C   UNL     1       2.545   1.792   0.000  1.00  0.00     0.095 A 
ATOM      6  C   UNL     1       3.595   0.721   0.000  1.00  0.00     0.135 A 
ATOM      7  C   UNL     1       3.194  -0.724   0.000  1.00  0.00     0.059 A 
ATOM      8  C   UNL     1       4.244  -1.795   0.000  1.00  0.00     0.015 C 
ATOM      9  C   UNL     1       5.697  -1.420   0.000  1.00  0.00     0.021 C 
ATOM     10  C   UNL     1       6.099   0.025   0.000  1.00  0.00     0.122 C 
ATOM     11  C   UNL     1       6.971   1.246   0.000  1.00  0.00     0.061 C 
ATOM     12  C   UNL     1       7.452  -0.622   0.000  1.00  0.00     0.061 C 
ATOM     13  O   UNL     1       5.048   1.095   0.000  1.00  0.00    -0.483 OA
ATOM     14  C   UNL     1       1.741  -1.099   0.000  1.00  0.00     0.141 A 
ATOM     15  C   UNL     1       0.691  -0.028   0.000  1.00  0.00     0.108 A 
ATOM     16  C   UNL     1      -0.762  -0.403   0.000  1.00  0.00     0.204 A 
ATOM     17  O   UNL     1      -1.164  -1.848   0.000  1.00  0.00    -0.288 OA
ENDROOT
BRANCH   1  18
ATOM     18  C   UNL     1      -3.265   0.293   0.000  1.00  0.00    -0.011 A 
ATOM     19  C   UNL     1      -6.170  -0.456   0.000  1.00  0.00     0.118 A 
ATOM     20  C   UNL     1      -5.768   0.989   0.000  1.00  0.00     0.047 A 
ATOM     21  C   UNL     1      -5.119  -1.527   0.000  1.00  0.00     0.047 A 
ATOM     22  C   UNL     1      -4.316   1.364   0.000  1.00  0.00     0.013 A 
ATOM     23  C   UNL     1      -3.667  -1.152   0.000  1.00  0.00     0.013 A 
BRANCH  19  24
ATOM     24  O   UNL     1      -7.622  -0.831   0.000  1.00  0.00    -0.497 OA
ATOM     25  C   UNL     1      -8.673   0.240   0.000  1.00  0.00     0.278 C 
ENDBRANCH  19  24
ENDBRANCH   1  18
BRANCH  14  26
ATOM     26  O   UNL     1       1.339  -2.544   0.000  1.00  0.00    -0.506 OA
ATOM     27  H   UNL     1       0.000   0.000   0.000  1.00  0.00     0.293 HD
ENDBRANCH  14  26
TORSDOF 3
