REMARK SMILES Oc1cc(O)cc(C=Cc2ccc(O)c(O)c2)c1
REMARK SMILES IDX 8 1 7 2 2 3 3 4 18 5 4 6 6 7 1 8 5 10 9 12 10 13 11 14 17 15
REMARK SMILES IDX 12 16 15 17 13 18 16 19 14 21
REMARK H PARENT 1 9 5 11 16 20 14 22
ROOT
ATOM      1  C   UNL     1      -0.516   0.446   0.000  1.00  0.00     0.009 C 
ENDROOT
BRANCH   1   2
ATOM      2  C   UNL     1      -2.005   0.263   0.000  1.00  0.00    -0.018 A 
ATOM      3  C   UNL     1      -4.080  -1.300   0.000  1.00  0.00     0.119 A 
ATOM      4  C   UNL     1      -4.983  -0.102   0.000  1.00  0.00     0.092 A 
ATOM      5  C   UNL     1      -2.591  -1.118   0.000  1.00  0.00     0.054 A 
ATOM      6  C   UNL     1      -4.397   1.278   0.000  1.00  0.00     0.119 A 
ATOM      7  C   UNL     1      -2.908   1.461   0.000  1.00  0.00     0.054 A 
BRANCH   3   8
ATOM      8  O   UNL     1      -4.667  -2.681   0.000  1.00  0.00    -0.508 OA
ATOM      9  H   UNL     1       0.000   0.000   0.000  1.00  0.00     0.293 HD
ENDBRANCH   3   8
BRANCH   6  10
ATOM     10  O   UNL     1      -5.299   2.477   0.000  1.00  0.00    -0.508 OA
ATOM     11  H   UNL     1       0.000   0.000   0.000  1.00  0.00     0.293 HD
ENDBRANCH   6  10
ENDBRANCH   1   2
BRANCH   1  12
ATOM     12  C   UNL     1       0.386  -0.752   0.000  1.00  0.00     0.009 C 
BRANCH  12  13
ATOM     13  C   UNL     1       1.875  -0.570   0.000  1.00  0.00    -0.022 A 
ATOM     14  C   UNL     1       2.778  -1.768   0.000  1.00  0.00     0.012 A 
ATOM     15  C   UNL     1       2.461   0.811   0.000  1.00  0.00     0.058 A 
ATOM     16  C   UNL     1       4.266  -1.585   0.000  1.00  0.00     0.051 A 
ATOM     17  C   UNL     1       3.950   0.994   0.000  1.00  0.00     0.157 A 
ATOM     18  C   UNL     1       4.853  -0.204   0.000  1.00  0.00     0.157 A 
BRANCH  17  19
ATOM     19  O   UNL     1       4.536   2.374   0.000  1.00  0.00    -0.504 OA
ATOM     20  H   UNL     1       0.000   0.000   0.000  1.00  0.00     0.293 HD
ENDBRANCH  17  19
BRANCH  18  21
ATOM     21  O   UNL     1       6.341  -0.022   0.000  1.00  0.00    -0.504 OA
ATOM     22  H   UNL     1       0.000   0.000   0.000  1.00  0.00     0.293 HD
ENDBRANCH  18  21
ENDBRANCH  12  13
ENDBRANCH   1  12
TORSDOF 7
