REMARK SMILES C=C(C)[C@@H]1CC[C@]2(C)CC[C@]3(C)[C@H](CC[C@@H]4[C@@]5(C)CCC(OC(=O)/C=C/c6ccccc6)C(C)(C)[C@@H]5CC[C@]43C)[C@@H]12
REMARK SMILES IDX 22 1 21 2 4 3 5 4 41 5 6 6 13 7 7 8 11 9 14 10 9 11 10 12
REMARK SMILES IDX 39 13 15 14 38 15 16 16 37 17 17 18 36 19 19 20 33 21 20 22
REMARK SMILES IDX 8 23 12 24 40 25 18 26 34 27 35 28 2 29 1 30 3 31 23 32
REMARK SMILES IDX 24 33 25 34 26 35 27 36 28 37 32 38 29 39 31 40 30 41
REMARK H PARENT
ROOT
ATOM      1  O   UNL     1      -4.269   0.951   0.000  1.00  0.00    -0.459 OA
ENDROOT
BRANCH   1   2
ATOM      2  C   UNL     1      -2.785   0.733   0.000  1.00  0.00     0.182 C 
ATOM      3  C   UNL     1       6.950  -1.824   0.000  1.00  0.00     0.018 C 
ATOM      4  C   UNL     1       8.395  -1.419   0.000  1.00  0.00     0.009 C 
ATOM      5  C   UNL     1       6.119  -0.575   0.000  1.00  0.00     0.006 C 
ATOM      6  C   UNL     1       8.457   0.080   0.000  1.00  0.00     0.008 C 
ATOM      7  C   UNL     1       4.635  -0.357   0.000  1.00  0.00    -0.000 C 
ATOM      8  C   UNL     1       7.050   0.601   0.000  1.00  0.00    -0.029 C 
ATOM      9  C   UNL     1       4.082   1.037   0.000  1.00  0.00    -0.024 C 
ATOM     10  C   UNL     1       3.704  -1.533   0.000  1.00  0.00     0.005 C 
ATOM     11  C   UNL     1       6.497   1.996   0.000  1.00  0.00     0.007 C 
ATOM     12  C   UNL     1       5.013   2.213   0.000  1.00  0.00     0.008 C 
ATOM     13  C   UNL     1       2.598   1.255   0.000  1.00  0.00    -0.024 C 
ATOM     14  C   UNL     1       2.220  -1.315   0.000  1.00  0.00     0.005 C 
ATOM     15  C   UNL     1       2.045   2.650   0.000  1.00  0.00     0.008 C 
ATOM     16  C   UNL     1       1.667   0.079   0.000  1.00  0.00     0.002 C 
ATOM     17  C   UNL     1       0.561   2.867   0.000  1.00  0.00     0.005 C 
ATOM     18  C   UNL     1       0.183   0.297   0.000  1.00  0.00    -0.026 C 
ATOM     19  C   UNL     1      -0.370   1.691   0.000  1.00  0.00     0.005 C 
ATOM     20  C   UNL     1      -0.748  -0.879   0.000  1.00  0.00     0.011 C 
ATOM     21  C   UNL     1      -1.854   1.909   0.000  1.00  0.00     0.005 C 
ATOM     22  C   UNL     1      -2.232  -0.661   0.000  1.00  0.00     0.046 C 
ATOM     23  C   UNL     1       8.099   1.674   0.000  1.00  0.00     0.011 C 
ATOM     24  C   UNL     1       3.529   2.432   0.000  1.00  0.00     0.012 C 
ATOM     25  C   UNL     1       3.151  -0.139   0.000  1.00  0.00     0.012 C 
ATOM     26  C   UNL     1       0.736  -1.097   0.000  1.00  0.00     0.012 C 
ATOM     27  C   UNL     1      -1.382   3.333   0.000  1.00  0.00     0.015 C 
ATOM     28  C   UNL     1      -3.174   2.622   0.000  1.00  0.00     0.015 C 
BRANCH   3  29
ATOM     29  C   UNL     1       6.429  -3.230   0.000  1.00  0.00    -0.077 C 
ATOM     30  C   UNL     1       4.950  -3.481   0.000  1.00  0.00     0.008 C 
ATOM     31  C   UNL     1       7.386  -4.385   0.000  1.00  0.00     0.039 C 
ENDBRANCH   3  29
ENDBRANCH   1   2
BRANCH   1  32
ATOM     32  C   UNL     1      -5.200  -0.225   0.000  1.00  0.00     0.331 C 
ATOM     33  O   UNL     1      -4.647  -1.620   0.000  1.00  0.00    -0.247 OA
BRANCH  32  34
ATOM     34  C   UNL     1      -6.684  -0.007   0.000  1.00  0.00     0.094 C 
BRANCH  34  35
ATOM     35  C   UNL     1      -7.615  -1.184   0.000  1.00  0.00     0.015 C 
BRANCH  35  36
ATOM     36  C   UNL     1      -9.099  -0.966   0.000  1.00  0.00    -0.025 A 
ATOM     37  C   UNL     1      -9.652   0.429   0.000  1.00  0.00     0.008 A 
ATOM     38  C   UNL     1     -10.030  -2.142   0.000  1.00  0.00     0.008 A 
ATOM     39  C   UNL     1     -11.136   0.646   0.000  1.00  0.00     0.001 A 
ATOM     40  C   UNL     1     -11.514  -1.924   0.000  1.00  0.00     0.001 A 
ATOM     41  C   UNL     1     -12.067  -0.530   0.000  1.00  0.00     0.000 A 
ENDBRANCH  35  36
ENDBRANCH  34  35
ENDBRANCH  32  34
ENDBRANCH   1  32
TORSDOF 6
