REMARK SMILES COc1cc2occ(-c3cc4c(cc3OC)OCO4)c(=O)c2cc1OC
REMARK SMILES IDX 3 1 4 2 5 3 22 4 23 5 24 6 20 7 21 8 8 9 7 10 6 11 2 12 1 13
REMARK SMILES IDX 25 14 26 15 9 16 10 17 14 18 11 19 13 20 12 21 19 22 17 23
REMARK SMILES IDX 18 24 15 25 16 26
REMARK H PARENT
ROOT
ATOM      1  C   UNL     1       4.714  -0.534   0.000  1.00  0.00     0.164 A 
ATOM      2  C   UNL     1       3.695  -1.634   0.000  1.00  0.00     0.098 A 
ATOM      3  C   UNL     1       2.232  -1.302   0.000  1.00  0.00     0.141 A 
ATOM      4  C   UNL     1       1.789   0.131   0.000  1.00  0.00     0.069 A 
ATOM      5  C   UNL     1       2.808   1.232   0.000  1.00  0.00     0.066 A 
ATOM      6  C   UNL     1       4.271   0.899   0.000  1.00  0.00     0.161 A 
ATOM      7  C   UNL     1       0.326   0.463   0.000  1.00  0.00     0.200 A 
ATOM      8  O   UNL     1      -0.118   1.896   0.000  1.00  0.00    -0.288 OA
ATOM      9  C   UNL     1      -0.693  -0.637   0.000  1.00  0.00     0.069 A 
ATOM     10  C   UNL     1      -0.250  -2.070   0.000  1.00  0.00     0.208 A 
ATOM     11  O   UNL     1       1.213  -2.402   0.000  1.00  0.00    -0.463 OA
ENDROOT
BRANCH   1  12
ATOM     12  O   UNL     1       6.177  -0.866   0.000  1.00  0.00    -0.493 OA
ATOM     13  C   UNL     1       6.620  -2.299   0.000  1.00  0.00     0.278 C 
ENDBRANCH   1  12
BRANCH   6  14
ATOM     14  O   UNL     1       5.290   2.000   0.000  1.00  0.00    -0.493 OA
ATOM     15  C   UNL     1       6.752   1.668   0.000  1.00  0.00     0.278 C 
ENDBRANCH   6  14
BRANCH   9  16
ATOM     16  C   UNL     1      -2.156  -0.305   0.000  1.00  0.00     0.035 A 
ATOM     17  C   UNL     1      -3.175  -1.406   0.000  1.00  0.00     0.063 A 
ATOM     18  C   UNL     1      -2.600   1.128   0.000  1.00  0.00     0.130 A 
ATOM     19  C   UNL     1      -4.638  -1.073   0.000  1.00  0.00     0.166 A 
ATOM     20  C   UNL     1      -4.062   1.460   0.000  1.00  0.00     0.097 A 
ATOM     21  C   UNL     1      -5.081   0.359   0.000  1.00  0.00     0.169 A 
ATOM     22  O   UNL     1      -5.864  -1.938   0.000  1.00  0.00    -0.454 OA
ATOM     23  O   UNL     1      -6.581   0.380   0.000  1.00  0.00    -0.453 OA
ATOM     24  C   UNL     1      -7.065  -1.040   0.000  1.00  0.00     0.468 C 
BRANCH  18  25
ATOM     25  O   UNL     1      -1.580   2.228   0.000  1.00  0.00    -0.496 OA
ATOM     26  C   UNL     1      -2.024   3.661   0.000  1.00  0.00     0.278 C 
ENDBRANCH  18  25
ENDBRANCH   9  16
TORSDOF 4
