REMARK SMILES CC1=C[C@@H]2C(=CC1)[C@@H](C)CC[C@H]2C(C)C
REMARK SMILES IDX 1 1 2 2 3 3 4 4 5 5 6 6 7 7 8 8 9 9 10 10 11 11 12 12 13 13
REMARK SMILES IDX 14 14 15 15
REMARK H PARENT
ROOT
ATOM      1  C   UNL     1       3.000  -2.771   0.000  1.00  0.00     0.039 C 
ATOM      2  C   UNL     1       2.250  -1.472   0.000  1.00  0.00    -0.073 C 
ATOM      3  C   UNL     1       0.750  -1.472   0.000  1.00  0.00    -0.020 C 
ATOM      4  C   UNL     1       0.000  -0.173   0.000  1.00  0.00     0.041 C 
ATOM      5  C   UNL     1       0.750   1.126   0.000  1.00  0.00    -0.064 C 
ATOM      6  C   UNL     1       2.250   1.126   0.000  1.00  0.00    -0.022 C 
ATOM      7  C   UNL     1       3.000  -0.173   0.000  1.00  0.00     0.057 C 
ATOM      8  C   UNL     1      -0.000   2.425   0.000  1.00  0.00     0.012 C 
ATOM      9  C   UNL     1       0.750   3.724   0.000  1.00  0.00     0.012 C 
ATOM     10  C   UNL     1      -1.500   2.425   0.000  1.00  0.00     0.008 C 
ATOM     11  C   UNL     1      -2.250   1.126   0.000  1.00  0.00     0.005 C 
ATOM     12  C   UNL     1      -1.500  -0.173   0.000  1.00  0.00     0.002 C 
ENDROOT
BRANCH  12  13
ATOM     13  C   UNL     1      -2.250  -1.472   0.000  1.00  0.00    -0.013 C 
ATOM     14  C   UNL     1      -3.750  -1.472   0.000  1.00  0.00     0.007 C 
ATOM     15  C   UNL     1      -1.500  -2.771   0.000  1.00  0.00     0.007 C 
ENDBRANCH  12  13
TORSDOF 1
