REMARK SMILES CC1(C)CC[C@]2(C(=O)O)CC[C@]3(C)C(=CC[C@@H]4[C@@]5(C)CC[C@H](O[C@H]6O[C@H](CO)[C@@H](O)[C@H](O)[C@H]6O[C@@H]6O[C@H](CO)[C@@H](O)[C@H](O)[C@H]6O)C(C)(C)[C@@H]5CC[C@]43C)[C@@H]2C1
REMARK SMILES IDX 24 1 25 2 26 3 29 4 31 5 33 6 23 7 22 8 2 9 4 10 55 11 5 12
REMARK SMILES IDX 54 13 6 14 14 15 10 16 12 17 15 18 11 19 52 20 16 21 51 22
REMARK SMILES IDX 17 23 50 24 18 25 49 26 20 27 46 28 21 29 1 30 3 31 13 32
REMARK SMILES IDX 53 33 19 34 47 35 48 36 7 37 8 38 9 39 34 41 35 42 36 43
REMARK SMILES IDX 44 44 37 45 42 46 40 47 45 48 38 50 39 51 43 53 41 55 27 57
REMARK SMILES IDX 28 58 32 60 30 62
REMARK H PARENT 9 40 45 49 39 52 43 54 41 56 28 59 32 61 30 63
ROOT
ATOM      1  C   UNL     1       3.758  -0.681   0.000  1.00  0.00     0.282 C 
ATOM      2  O   UNL     1       3.145  -2.050   0.000  1.00  0.00    -0.341 OA
ATOM      3  C   UNL     1       4.024  -3.266   0.000  1.00  0.00     0.178 C 
ATOM      4  C   UNL     1       5.516  -3.112   0.000  1.00  0.00     0.177 C 
ATOM      5  C   UNL     1       6.129  -1.743   0.000  1.00  0.00     0.180 C 
ATOM      6  C   UNL     1       5.250  -0.528   0.000  1.00  0.00     0.209 C 
ENDROOT
BRANCH   1   7
ATOM      7  O   UNL     1       2.879   0.534   0.000  1.00  0.00    -0.346 OA
BRANCH   7   8
ATOM      8  C   UNL     1       1.387   0.380   0.000  1.00  0.00     0.127 C 
ATOM      9  C   UNL     1      -9.671  -2.065   0.000  1.00  0.00    -0.035 C 
ATOM     10  C   UNL     1     -10.550  -0.850   0.000  1.00  0.00     0.007 C 
ATOM     11  C   UNL     1      -8.179  -1.911   0.000  1.00  0.00     0.015 C 
ATOM     12  C   UNL     1      -9.937   0.519   0.000  1.00  0.00     0.020 C 
ATOM     13  C   UNL     1      -7.566  -0.542   0.000  1.00  0.00     0.033 C 
ATOM     14  C   UNL     1      -8.445   0.673   0.000  1.00  0.00     0.074 C 
ATOM     15  C   UNL     1      -6.074  -0.388   0.000  1.00  0.00    -0.063 C 
ATOM     16  C   UNL     1      -7.832   2.042   0.000  1.00  0.00     0.020 C 
ATOM     17  C   UNL     1      -5.461   0.981   0.000  1.00  0.00    -0.006 C 
ATOM     18  C   UNL     1      -5.195  -1.604   0.000  1.00  0.00    -0.027 C 
ATOM     19  C   UNL     1      -6.340   2.196   0.000  1.00  0.00     0.013 C 
ATOM     20  C   UNL     1      -3.969   1.134   0.000  1.00  0.00    -0.020 C 
ATOM     21  C   UNL     1      -3.703  -1.450   0.000  1.00  0.00     0.032 C 
ATOM     22  C   UNL     1      -3.356   2.503   0.000  1.00  0.00     0.008 C 
ATOM     23  C   UNL     1      -3.090  -0.081   0.000  1.00  0.00     0.006 C 
ATOM     24  C   UNL     1      -1.864   2.657   0.000  1.00  0.00     0.005 C 
ATOM     25  C   UNL     1      -1.598   0.073   0.000  1.00  0.00    -0.025 C 
ATOM     26  C   UNL     1      -0.985   1.442   0.000  1.00  0.00     0.003 C 
ATOM     27  C   UNL     1      -0.719  -1.143   0.000  1.00  0.00     0.010 C 
ATOM     28  C   UNL     1       0.507   1.596   0.000  1.00  0.00    -0.006 C 
ATOM     29  C   UNL     1       0.774  -0.989   0.000  1.00  0.00     0.033 C 
ATOM     30  C   UNL     1      -9.261  -3.508   0.000  1.00  0.00     0.011 C 
ATOM     31  C   UNL     1     -11.021  -2.720   0.000  1.00  0.00     0.011 C 
ATOM     32  C   UNL     1      -4.582  -0.235   0.000  1.00  0.00     0.017 C 
ATOM     33  C   UNL     1      -4.848   2.350   0.000  1.00  0.00     0.012 C 
ATOM     34  C   UNL     1      -2.211  -1.296   0.000  1.00  0.00     0.012 C 
ATOM     35  C   UNL     1       0.097   3.038   0.000  1.00  0.00     0.014 C 
ATOM     36  C   UNL     1       1.857   2.250   0.000  1.00  0.00     0.014 C 
BRANCH  14  37
ATOM     37  C   UNL     1      -9.325   1.889   0.000  1.00  0.00     0.310 C 
ATOM     38  O   UNL     1     -10.817   1.735   0.000  1.00  0.00    -0.252 OA
BRANCH  37  39
ATOM     39  O   UNL     1      -8.712   3.258   0.000  1.00  0.00    -0.481 OA
ATOM     40  H   UNL     1       0.000   0.000   0.000  1.00  0.00     0.296 HD
ENDBRANCH  37  39
ENDBRANCH  14  37
ENDBRANCH   7   8
ENDBRANCH   1   7
BRANCH   6  41
ATOM     41  O   UNL     1       5.863   0.842   0.000  1.00  0.00    -0.338 OA
BRANCH  41  42
ATOM     42  C   UNL     1       7.355   0.995   0.000  1.00  0.00     0.282 C 
ATOM     43  O   UNL     1       8.234  -0.220   0.000  1.00  0.00    -0.341 OA
ATOM     44  C   UNL     1       7.968   2.364   0.000  1.00  0.00     0.202 C 
ATOM     45  C   UNL     1       9.726  -0.066   0.000  1.00  0.00     0.178 C 
ATOM     46  C   UNL     1       9.460   2.518   0.000  1.00  0.00     0.179 C 
ATOM     47  C   UNL     1      10.339   1.303   0.000  1.00  0.00     0.177 C 
BRANCH  44  48
ATOM     48  O   UNL     1       7.089   3.580   0.000  1.00  0.00    -0.385 OA
ATOM     49  H   UNL     1       0.000   0.000   0.000  1.00  0.00     0.211 HD
ENDBRANCH  44  48
BRANCH  45  50
ATOM     50  C   UNL     1      10.605  -1.282   0.000  1.00  0.00     0.191 C 
BRANCH  50  51
ATOM     51  O   UNL     1      12.098  -1.128   0.000  1.00  0.00    -0.394 OA
ATOM     52  H   UNL     1       0.000   0.000   0.000  1.00  0.00     0.210 HD
ENDBRANCH  50  51
ENDBRANCH  45  50
BRANCH  46  53
ATOM     53  O   UNL     1      10.073   3.887   0.000  1.00  0.00    -0.387 OA
ATOM     54  H   UNL     1       0.000   0.000   0.000  1.00  0.00     0.211 HD
ENDBRANCH  46  53
BRANCH  47  55
ATOM     55  O   UNL     1      11.831   1.456   0.000  1.00  0.00    -0.387 OA
ATOM     56  H   UNL     1       0.000   0.000   0.000  1.00  0.00     0.211 HD
ENDBRANCH  47  55
ENDBRANCH  41  42
ENDBRANCH   6  41
BRANCH   3  57
ATOM     57  C   UNL     1       3.411  -4.635   0.000  1.00  0.00     0.191 C 
BRANCH  57  58
ATOM     58  O   UNL     1       1.919  -4.788   0.000  1.00  0.00    -0.394 OA
ATOM     59  H   UNL     1       0.000   0.000   0.000  1.00  0.00     0.210 HD
ENDBRANCH  57  58
ENDBRANCH   3  57
BRANCH   5  60
ATOM     60  O   UNL     1       7.621  -1.589   0.000  1.00  0.00    -0.387 OA
ATOM     61  H   UNL     1       0.000   0.000   0.000  1.00  0.00     0.211 HD
ENDBRANCH   5  60
BRANCH   4  62
ATOM     62  O   UNL     1       6.395  -4.327   0.000  1.00  0.00    -0.387 OA
ATOM     63  H   UNL     1       0.000   0.000   0.000  1.00  0.00     0.211 HD
ENDBRANCH   4  62
TORSDOF 15
