REMARK SMILES COC(=O)[C@@]1(C)C[C@@H]2[C@@](C)(CC(C)=C3C4=CC(=O)c5c(cc(O)c(OC)c5C)[C@]4(C)CC[C@]32C)C(=O)[C@@H]1O
REMARK SMILES IDX 5 1 6 2 7 3 8 4 9 5 10 6 11 7 12 8 13 9 14 10 15 11 16 12
REMARK SMILES IDX 17 13 18 14 19 15 20 16 21 17 22 18 24 19 27 20 28 21 29 22
REMARK SMILES IDX 30 23 31 24 32 25 33 26 34 27 35 28 36 29 37 30 3 31 4 32
REMARK SMILES IDX 2 33 1 34 38 35 23 37 25 39 26 40
REMARK H PARENT 38 36 23 38
ROOT
ATOM      1  C   UNL     1       5.025  -0.722   0.000  1.00  0.00     0.098 C 
ATOM      2  C   UNL     1       6.493  -1.027   0.000  1.00  0.00     0.027 C 
ATOM      3  C   UNL     1       3.540  -0.938   0.000  1.00  0.00     0.027 C 
ATOM      4  C   UNL     1       2.611   0.240   0.000  1.00  0.00     0.014 C 
ATOM      5  C   UNL     1       3.167   1.633   0.000  1.00  0.00     0.036 C 
ATOM      6  C   UNL     1       3.722   3.026   0.000  1.00  0.00     0.020 C 
ATOM      7  C   UNL     1       2.238   2.811   0.000  1.00  0.00     0.046 C 
ATOM      8  C   UNL     1       0.753   2.595   0.000  1.00  0.00    -0.068 C 
ATOM      9  C   UNL     1      -0.176   3.773   0.000  1.00  0.00     0.040 C 
ATOM     10  C   UNL     1       0.198   1.202   0.000  1.00  0.00    -0.039 C 
ATOM     11  C   UNL     1      -1.287   0.986   0.000  1.00  0.00    -0.030 C 
ATOM     12  C   UNL     1      -2.216   2.164   0.000  1.00  0.00     0.057 C 
ATOM     13  C   UNL     1      -3.700   1.948   0.000  1.00  0.00     0.186 C 
ATOM     14  O   UNL     1      -4.629   3.126   0.000  1.00  0.00    -0.289 OA
ATOM     15  C   UNL     1      -4.255   0.555   0.000  1.00  0.00     0.033 A 
ATOM     16  C   UNL     1      -3.326  -0.623   0.000  1.00  0.00    -0.022 A 
ATOM     17  C   UNL     1      -3.882  -2.016   0.000  1.00  0.00     0.055 A 
ATOM     18  C   UNL     1      -5.366  -2.232   0.000  1.00  0.00     0.158 A 
ATOM     19  C   UNL     1      -6.295  -1.054   0.000  1.00  0.00     0.164 A 
ATOM     20  C   UNL     1      -5.740   0.339   0.000  1.00  0.00     0.006 A 
ATOM     21  C   UNL     1      -6.669   1.517   0.000  1.00  0.00     0.049 C 
ATOM     22  C   UNL     1      -1.842  -0.407   0.000  1.00  0.00     0.019 C 
ATOM     23  C   UNL     1      -2.397  -1.800   0.000  1.00  0.00     0.021 C 
ATOM     24  C   UNL     1      -0.913  -1.585   0.000  1.00  0.00     0.017 C 
ATOM     25  C   UNL     1       0.571  -1.369   0.000  1.00  0.00     0.013 C 
ATOM     26  C   UNL     1       1.127   0.024   0.000  1.00  0.00    -0.003 C 
ATOM     27  C   UNL     1       2.056  -1.154   0.000  1.00  0.00     0.017 C 
ATOM     28  C   UNL     1       4.651   1.849   0.000  1.00  0.00     0.168 C 
ATOM     29  O   UNL     1       5.207   3.242   0.000  1.00  0.00    -0.296 OA
ATOM     30  C   UNL     1       5.580   0.671   0.000  1.00  0.00     0.198 C 
ENDROOT
BRANCH   1  31
ATOM     31  C   UNL     1       4.979  -2.222   0.000  1.00  0.00     0.314 C 
ATOM     32  O   UNL     1       3.658  -2.932   0.000  1.00  0.00    -0.252 OA
BRANCH  31  33
ATOM     33  O   UNL     1       6.255  -3.011   0.000  1.00  0.00    -0.469 OA
ATOM     34  C   UNL     1       6.210  -4.510   0.000  1.00  0.00     0.282 C 
ENDBRANCH  31  33
ENDBRANCH   1  31
BRANCH  30  35
ATOM     35  O   UNL     1       7.064   0.887   0.000  1.00  0.00    -0.384 OA
ATOM     36  H   UNL     1       0.000   0.000   0.000  1.00  0.00     0.211 HD
ENDBRANCH  30  35
BRANCH  18  37
ATOM     37  O   UNL     1      -5.922  -3.625   0.000  1.00  0.00    -0.504 OA
ATOM     38  H   UNL     1       0.000   0.000   0.000  1.00  0.00     0.293 HD
ENDBRANCH  18  37
BRANCH  19  39
ATOM     39  O   UNL     1      -7.780  -1.270   0.000  1.00  0.00    -0.493 OA
ATOM     40  C   UNL     1      -8.709  -0.092   0.000  1.00  0.00     0.278 C 
ENDBRANCH  19  39
TORSDOF 5
