REMARK SMILES CO[C@H]1[C@H](O)[C@@H](O)[C@H](O)[C@H](O)[C@H]1O
REMARK SMILES IDX 3 1 4 2 6 3 8 4 10 5 12 6 2 7 1 8 5 9 13 11 7 13 11 15 9 17
REMARK H PARENT 5 10 13 12 7 14 11 16 9 18
ROOT
ATOM      1  C   UNL     1      -1.112  -0.491   0.000  1.00  0.00     0.180 C 
ATOM      2  C   UNL     1      -0.829   0.982   0.000  1.00  0.00     0.177 C 
ATOM      3  C   UNL     1       0.589   1.473   0.000  1.00  0.00     0.177 C 
ATOM      4  C   UNL     1       1.723   0.491   0.000  1.00  0.00     0.177 C 
ATOM      5  C   UNL     1       1.439  -0.982   0.000  1.00  0.00     0.177 C 
ATOM      6  C   UNL     1       0.022  -1.473   0.000  1.00  0.00     0.177 C 
ENDROOT
BRANCH   1   7
ATOM      7  O   UNL     1      -2.530  -0.982   0.000  1.00  0.00    -0.376 OA
ATOM      8  C   UNL     1      -3.663   0.000   0.000  1.00  0.00     0.195 C 
ENDBRANCH   1   7
BRANCH   2   9
ATOM      9  O   UNL     1      -1.962   1.964   0.000  1.00  0.00    -0.387 OA
ATOM     10  H   UNL     1       0.000   0.000   0.000  1.00  0.00     0.211 HD
ENDBRANCH   2   9
BRANCH   6  11
ATOM     11  O   UNL     1      -0.262  -2.946   0.000  1.00  0.00    -0.387 OA
ATOM     12  H   UNL     1       0.000   0.000   0.000  1.00  0.00     0.211 HD
ENDBRANCH   6  11
BRANCH   3  13
ATOM     13  O   UNL     1       0.872   2.946   0.000  1.00  0.00    -0.387 OA
ATOM     14  H   UNL     1       0.000   0.000   0.000  1.00  0.00     0.211 HD
ENDBRANCH   3  13
BRANCH   5  15
ATOM     15  O   UNL     1       2.573  -1.964   0.000  1.00  0.00    -0.387 OA
ATOM     16  H   UNL     1       0.000   0.000   0.000  1.00  0.00     0.211 HD
ENDBRANCH   5  15
BRANCH   4  17
ATOM     17  O   UNL     1       3.140   0.982   0.000  1.00  0.00    -0.387 OA
ATOM     18  H   UNL     1       0.000   0.000   0.000  1.00  0.00     0.211 HD
ENDBRANCH   4  17
TORSDOF 6
