REMARK SMILES COc1cc(O)c2c(=O)oc(C)cc2c1
REMARK SMILES IDX 3 1 4 2 5 3 7 4 8 5 9 6 10 7 11 8 12 9 13 10 14 11 15 12
REMARK SMILES IDX 2 13 1 14 6 15
REMARK H PARENT 6 16
ROOT
ATOM      1  C   UNL     1      -2.317  -0.716   0.000  1.00  0.00     0.123 A 
ATOM      2  C   UNL     1      -2.196   0.779   0.000  1.00  0.00     0.093 A 
ATOM      3  C   UNL     1      -0.841   1.422   0.000  1.00  0.00     0.134 A 
ATOM      4  C   UNL     1       0.394   0.570   0.000  1.00  0.00     0.109 A 
ATOM      5  C   UNL     1       1.749   1.213   0.000  1.00  0.00     0.347 A 
ATOM      6  O   UNL     1       1.869   2.708   0.000  1.00  0.00    -0.246 OA
ATOM      7  O   UNL     1       2.983   0.361   0.000  1.00  0.00    -0.428 OA
ATOM      8  C   UNL     1       2.863  -1.134   0.000  1.00  0.00     0.105 A 
ATOM      9  C   UNL     1       4.097  -1.986   0.000  1.00  0.00     0.088 C 
ATOM     10  C   UNL     1       1.508  -1.777   0.000  1.00  0.00     0.051 A 
ATOM     11  C   UNL     1       0.273  -0.925   0.000  1.00  0.00    -0.000 A 
ATOM     12  C   UNL     1      -1.082  -1.568   0.000  1.00  0.00     0.055 A 
ENDROOT
BRANCH   1  13
ATOM     13  O   UNL     1      -3.672  -1.359   0.000  1.00  0.00    -0.497 OA
ATOM     14  C   UNL     1      -4.906  -0.507   0.000  1.00  0.00     0.278 C 
ENDBRANCH   1  13
BRANCH   3  15
ATOM     15  O   UNL     1      -0.720   2.917   0.000  1.00  0.00    -0.507 OA
ATOM     16  H   UNL     1       0.000   0.000   0.000  1.00  0.00     0.293 HD
ENDBRANCH   3  15
TORSDOF 2
