REMARK SMILES CC(=O)O[C@@H]1Cc2c(O)cc(O)cc2OC1c1ccc(O)c(O)c1
REMARK SMILES IDX 5 1 6 2 7 3 8 4 10 5 11 6 13 7 14 8 15 9 16 10 4 11 2 12
REMARK SMILES IDX 1 13 3 14 17 15 18 16 24 17 19 18 22 19 20 20 23 21 21 23
REMARK SMILES IDX 9 25 12 27
REMARK H PARENT 23 22 21 24 9 26 12 28
ROOT
ATOM      1  C   UNL     1      -0.146  -1.162   0.000  1.00  0.00     0.226 C 
ATOM      2  C   UNL     1      -1.636  -1.337   0.000  1.00  0.00     0.093 C 
ATOM      3  C   UNL     1      -2.533  -0.135   0.000  1.00  0.00     0.040 A 
ATOM      4  C   UNL     1      -4.023  -0.310   0.000  1.00  0.00     0.126 A 
ATOM      5  C   UNL     1      -4.919   0.892   0.000  1.00  0.00     0.092 A 
ATOM      6  C   UNL     1      -4.326   2.270   0.000  1.00  0.00     0.122 A 
ATOM      7  C   UNL     1      -2.837   2.446   0.000  1.00  0.00     0.093 A 
ATOM      8  C   UNL     1      -1.940   1.243   0.000  1.00  0.00     0.131 A 
ATOM      9  O   UNL     1      -0.450   1.419   0.000  1.00  0.00    -0.481 OA
ATOM     10  C   UNL     1       0.447   0.216   0.000  1.00  0.00     0.245 C 
ENDROOT
BRANCH   1  11
ATOM     11  O   UNL     1       0.750  -2.364   0.000  1.00  0.00    -0.458 OA
BRANCH  11  12
ATOM     12  C   UNL     1       0.158  -3.742   0.000  1.00  0.00     0.303 C 
ATOM     13  C   UNL     1       1.054  -4.944   0.000  1.00  0.00     0.139 C 
ATOM     14  O   UNL     1      -1.332  -3.917   0.000  1.00  0.00    -0.253 OA
ENDBRANCH  11  12
ENDBRANCH   1  11
BRANCH  10  15
ATOM     15  C   UNL     1       1.936   0.392   0.000  1.00  0.00     0.000 A 
ATOM     16  C   UNL     1       2.833  -0.811   0.000  1.00  0.00     0.012 A 
ATOM     17  C   UNL     1       2.529   1.769   0.000  1.00  0.00     0.057 A 
ATOM     18  C   UNL     1       4.323  -0.635   0.000  1.00  0.00     0.050 A 
ATOM     19  C   UNL     1       4.019   1.945   0.000  1.00  0.00     0.157 A 
ATOM     20  C   UNL     1       4.916   0.742   0.000  1.00  0.00     0.157 A 
BRANCH  19  21
ATOM     21  O   UNL     1       4.612   3.323   0.000  1.00  0.00    -0.504 OA
ATOM     22  H   UNL     1       0.000   0.000   0.000  1.00  0.00     0.293 HD
ENDBRANCH  19  21
BRANCH  20  23
ATOM     23  O   UNL     1       6.405   0.918   0.000  1.00  0.00    -0.504 OA
ATOM     24  H   UNL     1       0.000   0.000   0.000  1.00  0.00     0.293 HD
ENDBRANCH  20  23
ENDBRANCH  10  15
BRANCH   4  25
ATOM     25  O   UNL     1      -4.615  -1.688   0.000  1.00  0.00    -0.507 OA
ATOM     26  H   UNL     1       0.000   0.000   0.000  1.00  0.00     0.293 HD
ENDBRANCH   4  25
BRANCH   6  27
ATOM     27  O   UNL     1      -5.223   3.472   0.000  1.00  0.00    -0.508 OA
ATOM     28  H   UNL     1       0.000   0.000   0.000  1.00  0.00     0.293 HD
ENDBRANCH   6  27
TORSDOF 7
