REMARK SMILES C[C@]12C(=O)O[C@@H]3CC4=C(O)C(=O)CCC4[C@@]4(CC[C@@]1(O)OC4)C32
REMARK SMILES IDX 1 1 2 2 3 3 4 4 5 5 6 6 7 7 8 8 9 9 11 10 12 11 13 12 14 13
REMARK SMILES IDX 15 14 16 15 17 16 18 17 19 18 21 19 22 20 23 21 20 22 10 24
REMARK H PARENT 20 23 10 25
ROOT
ATOM      1  C   UNL     1       3.779   0.315   0.000  1.00  0.00     0.030 C 
ATOM      2  C   UNL     1       2.281   0.229   0.000  1.00  0.00     0.126 C 
ATOM      3  C   UNL     1       2.812   1.632   0.000  1.00  0.00     0.318 C 
ATOM      4  O   UNL     1       4.260   2.027   0.000  1.00  0.00    -0.251 OA
ATOM      5  O   UNL     1       1.642   2.571   0.000  1.00  0.00    -0.461 OA
ATOM      6  C   UNL     1       0.388   1.748   0.000  1.00  0.00     0.185 C 
ATOM      7  C   UNL     1      -1.116   1.835   0.000  1.00  0.00     0.081 C 
ATOM      8  C   UNL     1      -2.055   0.665   0.000  1.00  0.00    -0.017 C 
ATOM      9  C   UNL     1      -3.537   0.892   0.000  1.00  0.00     0.158 C 
ATOM     10  C   UNL     1      -4.476  -0.278   0.000  1.00  0.00     0.197 C 
ATOM     11  O   UNL     1      -5.958  -0.050   0.000  1.00  0.00    -0.291 OA
ATOM     12  C   UNL     1      -3.932  -1.676   0.000  1.00  0.00     0.085 C 
ATOM     13  C   UNL     1      -2.449  -1.903   0.000  1.00  0.00     0.017 C 
ATOM     14  C   UNL     1      -1.511  -0.733   0.000  1.00  0.00     0.028 C 
ATOM     15  C   UNL     1      -0.028  -0.961   0.000  1.00  0.00     0.008 C 
ATOM     16  C   UNL     1       0.659  -2.294   0.000  1.00  0.00     0.016 C 
ATOM     17  C   UNL     1       2.158  -2.366   0.000  1.00  0.00     0.067 C 
ATOM     18  C   UNL     1       2.969  -1.104   0.000  1.00  0.00     0.181 C 
ATOM     19  O   UNL     1       2.150  -1.014   0.000  1.00  0.00    -0.348 OA
ATOM     20  C   UNL     1       0.795  -0.950   0.000  1.00  0.00     0.172 C 
ATOM     21  C   UNL     1       0.783   0.301   0.000  1.00  0.00     0.062 C 
ENDROOT
BRANCH  18  22
ATOM     22  O   UNL     1       4.467  -1.175   0.000  1.00  0.00    -0.365 OA
ATOM     23  H   UNL     1       0.000   0.000   0.000  1.00  0.00     0.214 HD
ENDBRANCH  18  22
BRANCH   9  24
ATOM     24  O   UNL     1      -4.081   2.290   0.000  1.00  0.00    -0.504 OA
ATOM     25  H   UNL     1       0.000   0.000   0.000  1.00  0.00     0.293 HD
ENDBRANCH   9  24
TORSDOF 2
