REMARK SMILES O=C1OC[C@@H]2OC(=O)c3cc(O)c(O)c(O)c3-c3c(O)c(O)c(O)c4c3C(=O)O[C@@H]([C@H]2OC(=O)c2cc(O)c(O)c(O)c2-c2c1cc(O)c(O)c2O)[C@H]1OC(=O)c2c-4c(O)c(O)c(O)c2[C@@H]1O
REMARK SMILES IDX 33 1 34 2 35 3 43 4 41 5 39 6 36 7 37 8 44 9 45 10 46 11
REMARK SMILES IDX 51 12 47 13 49 14 2 15 1 16 3 17 4 18 52 20 48 22 50 24
REMARK SMILES IDX 42 26 40 28 38 30 32 32 31 33 30 34 5 35 29 36 6 37 27 38
REMARK SMILES IDX 7 39 26 40 9 41 25 42 18 43 10 44 17 45 23 46 19 47 11 48
REMARK SMILES IDX 15 49 21 50 13 51 28 52 8 53 58 56 57 57 59 58 55 59 65 60
REMARK SMILES IDX 61 61 54 62 63 63 66 64 53 65 56 66 60 68 62 70 64 72 67 74
REMARK SMILES IDX 24 76 20 78 12 80 16 82 22 84 14 86
REMARK H PARENT 52 21 48 23 50 25 42 27 40 29 38 31 60 69 62 71 64 73 67 75
REMARK H PARENT 24 77 20 79 12 81 16 83 22 85 14 87
REMARK Flexibility Score:  169.800
ROOT
ATOM      1  C   UNL     1      -3.091   1.818   0.000  1.00  0.00     0.339 C 
ATOM      2  O   UNL     1      -2.673   3.259   0.000  1.00  0.00    -0.246 OA
ENDROOT
BRANCH   1   3
ATOM      3  C   UNL     1      -4.591   1.813   0.000  1.00  0.00     0.075 A 
ATOM      4  C   UNL     1      -5.850   0.998   0.000  1.00  0.00     0.047 A 
ATOM      5  C   UNL     1      -7.186   1.681   0.000  1.00  0.00     0.170 A 
ATOM      6  C   UNL     1      -7.262   3.179   0.000  1.00  0.00     0.200 A 
ATOM      7  C   UNL     1      -4.668   3.311   0.000  1.00  0.00     0.066 A 
ATOM      8  C   UNL     1      -6.003   3.994   0.000  1.00  0.00     0.162 A 
BRANCH   4   9
ATOM      9  C   UNL     1      -6.469  -0.369   0.000  1.00  0.00     0.047 A 
ATOM     10  C   UNL     1      -6.250  -1.853   0.000  1.00  0.00     0.075 A 
ATOM     11  C   UNL     1      -7.426  -2.784   0.000  1.00  0.00     0.066 A 
ATOM     12  C   UNL     1      -7.863   0.184   0.000  1.00  0.00     0.170 A 
ATOM     13  C   UNL     1      -8.820  -2.231   0.000  1.00  0.00     0.162 A 
ATOM     14  C   UNL     1      -9.039  -0.747   0.000  1.00  0.00     0.200 A 
BRANCH  10  15
ATOM     15  C   UNL     1      -5.264  -2.983   0.000  1.00  0.00     0.339 C 
ATOM     16  O   UNL     1      -6.071  -4.248   0.000  1.00  0.00    -0.246 OA
BRANCH  15  17
ATOM     17  O   UNL     1      -3.823  -3.401   0.000  1.00  0.00    -0.458 OA
BRANCH  17  18
ATOM     18  C   UNL     1      -2.386  -2.973   0.000  1.00  0.00     0.282 CG0
ATOM     19  G   UNL     1      -1.407  -1.836   0.000  1.00  0.00     0.000 G0
ENDBRANCH  17  18
ENDBRANCH  15  17
ENDBRANCH  10  15
BRANCH  12  20
ATOM     20  O   UNL     1      -8.261   1.630   0.000  1.00  0.00    -0.504 OA
ATOM     21  H   UNL     1       0.000   0.000   0.000  1.00  0.00     0.293 HD
ENDBRANCH  12  20
BRANCH  13  22
ATOM     22  O   UNL     1      -9.996  -3.163   0.000  1.00  0.00    -0.504 OA
ATOM     23  H   UNL     1       0.000   0.000   0.000  1.00  0.00     0.293 HD
ENDBRANCH  13  22
BRANCH  14  24
ATOM     24  O   UNL     1     -10.434  -0.195   0.000  1.00  0.00    -0.502 OA
ATOM     25  H   UNL     1       0.000   0.000   0.000  1.00  0.00     0.293 HD
ENDBRANCH  14  24
ENDBRANCH   4   9
BRANCH   5  26
ATOM     26  O   UNL     1      -8.535   1.025   0.000  1.00  0.00    -0.504 OA
ATOM     27  H   UNL     1       0.000   0.000   0.000  1.00  0.00     0.293 HD
ENDBRANCH   5  26
BRANCH   6  28
ATOM     28  O   UNL     1      -8.598   3.861   0.000  1.00  0.00    -0.502 OA
ATOM     29  H   UNL     1       0.000   0.000   0.000  1.00  0.00     0.293 HD
ENDBRANCH   6  28
BRANCH   8  30
ATOM     30  O   UNL     1      -6.080   5.492   0.000  1.00  0.00    -0.504 OA
ATOM     31  H   UNL     1       0.000   0.000   0.000  1.00  0.00     0.293 HD
ENDBRANCH   8  30
ENDBRANCH   1   3
BRANCH   1  32
ATOM     32  O   UNL     1      -1.827   1.012   0.000  1.00  0.00    -0.450 OA
BRANCH  32  33
ATOM     33  C   UNL     1      -1.199  -0.351   0.000  1.00  0.00     0.266 C 
ATOM     34  C   UNL     1      -0.220   0.786   0.000  1.00  0.00     0.265 CG1
ATOM     35  C   UNL     1      -1.407  -1.836   0.000  1.00  0.00     0.259 CG0
ATOM     36  O   UNL     1       1.218   1.214   0.000  1.00  0.00    -0.450 OA
ATOM     37  O   UNL     1      -0.779  -3.199   0.000  1.00  0.00    -0.451 OA
ATOM     38  C   UNL     1       2.658   0.796   0.000  1.00  0.00     0.340 C 
ATOM     39  C   UNL     1       0.485  -4.005   0.000  1.00  0.00     0.339 C 
ATOM     40  C   UNL     1       3.644  -0.334   0.000  1.00  0.00     0.083 A 
ATOM     41  C   UNL     1       1.985  -4.000   0.000  1.00  0.00     0.075 A 
ATOM     42  C   UNL     1       4.820   0.597   0.000  1.00  0.00     0.048 A 
ATOM     43  C   UNL     1       3.863  -1.818   0.000  1.00  0.00     0.048 A 
ATOM     44  C   UNL     1       2.062  -5.498   0.000  1.00  0.00     0.066 A 
ATOM     45  C   UNL     1       3.244  -3.185   0.000  1.00  0.00     0.047 A 
ATOM     46  C   UNL     1       6.215   0.044   0.000  1.00  0.00     0.170 A 
ATOM     47  C   UNL     1       5.257  -2.371   0.000  1.00  0.00     0.170 A 
ATOM     48  C   UNL     1       3.397  -6.181   0.000  1.00  0.00     0.162 A 
ATOM     49  C   UNL     1       4.580  -3.868   0.000  1.00  0.00     0.170 A 
ATOM     50  C   UNL     1       6.433  -1.440   0.000  1.00  0.00     0.201 A 
ATOM     51  C   UNL     1       4.656  -5.366   0.000  1.00  0.00     0.200 A 
ATOM     52  O   UNL     1       3.465   2.061   0.000  1.00  0.00    -0.246 OA
ATOM     53  O   UNL     1       0.068  -5.446   0.000  1.00  0.00    -0.246 OA
ATOM     54  G   UNL     1      -2.386  -2.973   0.000  1.00  0.00     0.000 G0
ATOM     55  G   UNL     1       0.263   2.269   0.000  1.00  0.00     0.000 G1
BRANCH  42  56
ATOM     56  C   UNL     1       4.877   2.096   0.000  1.00  0.00     0.047 A 
ATOM     57  C   UNL     1       4.041   3.342   0.000  1.00  0.00     0.081 A 
ATOM     58  C   UNL     1       6.373   2.197   0.000  1.00  0.00     0.170 A 
ATOM     59  C   UNL     1       2.633   3.858   0.000  1.00  0.00     0.339 C 
ATOM     60  C   UNL     1       4.702   4.688   0.000  1.00  0.00     0.046 A 
ATOM     61  C   UNL     1       7.034   3.543   0.000  1.00  0.00     0.201 A 
ATOM     62  O   UNL     1       1.190   3.449   0.000  1.00  0.00    -0.451 OA
ATOM     63  C   UNL     1       6.199   4.789   0.000  1.00  0.00     0.168 A 
ATOM     64  C   UNL     1       3.228   4.412   0.000  1.00  0.00     0.194 C 
ATOM     65  C   UNL     1       0.263   2.269   0.000  1.00  0.00     0.255 CG1
ATOM     66  O   UNL     1       2.506   5.353   0.000  1.00  0.00    -0.246 OA
ATOM     67  G   UNL     1      -0.220   0.786   0.000  1.00  0.00     0.000 G1
BRANCH  58  68
ATOM     68  O   UNL     1       7.354   1.062   0.000  1.00  0.00    -0.504 OA
ATOM     69  H   UNL     1       0.000   0.000   0.000  1.00  0.00     0.293 HD
ENDBRANCH  58  68
BRANCH  61  70
ATOM     70  O   UNL     1       8.531   3.644   0.000  1.00  0.00    -0.502 OA
ATOM     71  H   UNL     1       0.000   0.000   0.000  1.00  0.00     0.293 HD
ENDBRANCH  61  70
BRANCH  63  72
ATOM     72  O   UNL     1       6.860   6.135   0.000  1.00  0.00    -0.504 OA
ATOM     73  H   UNL     1       0.000   0.000   0.000  1.00  0.00     0.293 HD
ENDBRANCH  63  72
BRANCH  64  74
ATOM     74  O   UNL     1       2.676   5.807   0.000  1.00  0.00    -0.384 OA
ATOM     75  H   UNL     1       0.000   0.000   0.000  1.00  0.00     0.211 HD
ENDBRANCH  64  74
ENDBRANCH  42  56
BRANCH  46  76
ATOM     76  O   UNL     1       7.495   0.825   0.000  1.00  0.00    -0.504 OA
ATOM     77  H   UNL     1       0.000   0.000   0.000  1.00  0.00     0.293 HD
ENDBRANCH  46  76
BRANCH  47  78
ATOM     78  O   UNL     1       5.469  -3.140   0.000  1.00  0.00    -0.504 OA
ATOM     79  H   UNL     1       0.000   0.000   0.000  1.00  0.00     0.293 HD
ENDBRANCH  47  78
BRANCH  48  80
ATOM     80  O   UNL     1       3.474  -7.679   0.000  1.00  0.00    -0.504 OA
ATOM     81  H   UNL     1       0.000   0.000   0.000  1.00  0.00     0.293 HD
ENDBRANCH  48  80
BRANCH  49  82
ATOM     82  O   UNL     1       5.297  -3.519   0.000  1.00  0.00    -0.504 OA
ATOM     83  H   UNL     1       0.000   0.000   0.000  1.00  0.00     0.293 HD
ENDBRANCH  49  82
BRANCH  50  84
ATOM     84  O   UNL     1       7.828  -1.993   0.000  1.00  0.00    -0.502 OA
ATOM     85  H   UNL     1       0.000   0.000   0.000  1.00  0.00     0.293 HD
ENDBRANCH  50  84
BRANCH  51  86
ATOM     86  O   UNL     1       5.992  -6.048   0.000  1.00  0.00    -0.502 OA
ATOM     87  H   UNL     1       0.000   0.000   0.000  1.00  0.00     0.293 HD
ENDBRANCH  51  86
ENDBRANCH  32  33
ENDBRANCH   1  32
TORSDOF 16
