REMARK SMILES COc1cc([C@H]2OC[C@H]3[C@@H]2CO[C@@H]3c2ccc3c(c2)OCO3)ccc1OCCC=C(C)C
REMARK SMILES IDX 27 1 26 2 25 3 3 4 4 5 5 6 24 7 23 8 2 9 1 10 6 11 7 12
REMARK SMILES IDX 10 13 8 14 9 15 11 16 13 17 12 18 14 19 15 20 19 21 16 22
REMARK SMILES IDX 18 23 17 24 20 25 22 26 21 27 28 28 29 29 30 30 31 31 32 32
REMARK H PARENT
ROOT
ATOM      1  C   UNL     1       6.309   0.697   0.000  1.00  0.00     0.234 C 
ENDROOT
BRANCH   1   2
ATOM      2  O   UNL     1       5.673  -0.661   0.000  1.00  0.00    -0.489 OA
BRANCH   2   3
ATOM      3  C   UNL     1       4.178  -0.789   0.000  1.00  0.00     0.161 A 
ATOM      4  C   UNL     1       3.542  -2.147   0.000  1.00  0.00     0.161 A 
ATOM      5  C   UNL     1       2.047  -2.275   0.000  1.00  0.00     0.056 A 
ATOM      6  C   UNL     1       1.189  -1.045   0.000  1.00  0.00    -0.015 A 
ATOM      7  C   UNL     1       3.320   0.442   0.000  1.00  0.00     0.051 A 
ATOM      8  C   UNL     1       1.826   0.314   0.000  1.00  0.00     0.010 A 
BRANCH   4   9
ATOM      9  O   UNL     1       4.400  -3.377   0.000  1.00  0.00    -0.493 OA
ATOM     10  C   UNL     1       3.763  -4.736   0.000  1.00  0.00     0.278 C 
ENDBRANCH   4   9
BRANCH   6  11
ATOM     11  C   UNL     1      -0.305  -1.173   0.000  1.00  0.00     0.154 C 
ATOM     12  O   UNL     1      -1.080  -2.457   0.000  1.00  0.00    -0.373 OA
ATOM     13  C   UNL     1      -1.287  -0.039   0.000  1.00  0.00     0.057 C 
ATOM     14  C   UNL     1      -2.541  -2.117   0.000  1.00  0.00     0.168 C 
ATOM     15  C   UNL     1      -2.669  -0.622   0.000  1.00  0.00     0.057 C 
ATOM     16  C   UNL     1      -1.415   1.456   0.000  1.00  0.00     0.168 C 
ATOM     17  C   UNL     1      -3.651   0.512   0.000  1.00  0.00     0.154 C 
ATOM     18  O   UNL     1      -2.876   1.796   0.000  1.00  0.00    -0.373 OA
BRANCH  17  19
ATOM     19  C   UNL     1      -5.146   0.384   0.000  1.00  0.00    -0.015 A 
ATOM     20  C   UNL     1      -5.782  -0.974   0.000  1.00  0.00     0.010 A 
ATOM     21  C   UNL     1      -6.004   1.614   0.000  1.00  0.00     0.057 A 
ATOM     22  C   UNL     1      -7.277  -1.102   0.000  1.00  0.00     0.051 A 
ATOM     23  C   UNL     1      -7.498   1.486   0.000  1.00  0.00     0.166 A 
ATOM     24  C   UNL     1      -8.135   0.128   0.000  1.00  0.00     0.165 A 
ATOM     25  O   UNL     1      -8.593   2.511   0.000  1.00  0.00    -0.454 OA
ATOM     26  O   UNL     1      -9.623   0.314   0.000  1.00  0.00    -0.454 OA
ATOM     27  C   UNL     1      -9.907   1.787   0.000  1.00  0.00     0.468 C 
ENDBRANCH  17  19
ENDBRANCH   6  11
ENDBRANCH   2   3
ENDBRANCH   1   2
BRANCH   1  28
ATOM     28  C   UNL     1       7.804   0.825   0.000  1.00  0.00     0.069 C 
BRANCH  28  29
ATOM     29  C   UNL     1       8.440   2.183   0.000  1.00  0.00    -0.025 C 
BRANCH  29  30
ATOM     30  C   UNL     1       9.935   2.311   0.000  1.00  0.00    -0.080 C 
ATOM     31  C   UNL     1      10.571   3.670   0.000  1.00  0.00     0.039 C 
ATOM     32  C   UNL     1      10.793   1.081   0.000  1.00  0.00     0.039 C 
ENDBRANCH  29  30
ENDBRANCH  28  29
ENDBRANCH   1  28
TORSDOF 8
