REMARK SMILES O=C(O)CCc1ccccc1
REMARK SMILES IDX 1 1 2 2 3 3 4 5 5 6 6 7 7 8 11 9 8 10 10 11 9 12
REMARK H PARENT 3 4
ROOT
ATOM      1  O   UNL     1      -3.603  -1.351   0.000  1.00  0.00    -0.252 OA
ATOM      2  C   UNL     1      -3.176   0.088   0.000  1.00  0.00     0.303 C 
ENDROOT
BRANCH   2   3
ATOM      3  O   UNL     1      -4.209   1.176   0.000  1.00  0.00    -0.481 OA
ATOM      4  H   UNL     1       0.000   0.000   0.000  1.00  0.00     0.296 HD
ENDBRANCH   2   3
BRANCH   2   5
ATOM      5  C   UNL     1      -1.718   0.438   0.000  1.00  0.00     0.127 C 
BRANCH   5   6
ATOM      6  C   UNL     1      -0.685  -0.650   0.000  1.00  0.00     0.047 C 
BRANCH   6   7
ATOM      7  C   UNL     1       0.773  -0.300   0.000  1.00  0.00    -0.047 A 
ATOM      8  C   UNL     1       1.199   1.138   0.000  1.00  0.00     0.004 A 
ATOM      9  C   UNL     1       1.806  -1.388   0.000  1.00  0.00     0.004 A 
ATOM     10  C   UNL     1       2.658   1.488   0.000  1.00  0.00     0.000 A 
ATOM     11  C   UNL     1       3.264  -1.038   0.000  1.00  0.00     0.000 A 
ATOM     12  C   UNL     1       3.690   0.400   0.000  1.00  0.00     0.000 A 
ENDBRANCH   6   7
ENDBRANCH   5   6
ENDBRANCH   2   5
TORSDOF 4
