REMARK SMILES CC[C@H]1CC[C@H](O)CC1
REMARK SMILES IDX 3 1 9 2 8 3 6 4 5 5 4 6 2 7 1 8 7 9
REMARK H PARENT 7 10
ROOT
ATOM      1  C   UNL     1      -1.051  -0.299   0.000  1.00  0.00    -0.011 C 
ATOM      2  C   UNL     1      -0.497   1.094   0.000  1.00  0.00     0.006 C 
ATOM      3  C   UNL     1       0.987   1.311   0.000  1.00  0.00     0.032 C 
ATOM      4  C   UNL     1       1.917   0.134   0.000  1.00  0.00     0.114 C 
ATOM      5  C   UNL     1       1.363  -1.260   0.000  1.00  0.00     0.032 C 
ATOM      6  C   UNL     1      -0.121  -1.476   0.000  1.00  0.00     0.006 C 
ENDROOT
BRANCH   1   7
ATOM      7  C   UNL     1      -2.535  -0.516   0.000  1.00  0.00    -0.000 C 
ATOM      8  C   UNL     1      -3.465   0.661   0.000  1.00  0.00     0.004 C 
ENDBRANCH   1   7
BRANCH   4   9
ATOM      9  O   UNL     1       3.402   0.351   0.000  1.00  0.00    -0.393 OA
ATOM     10  H   UNL     1       0.000   0.000   0.000  1.00  0.00     0.210 HD
ENDBRANCH   4   9
TORSDOF 2
