REMARK SMILES C=C/C(C)=C\C[C@]1(C)[C@H](C)[C@@H](OC(=O)CCC)[C@H](O)[C@@]23C(=C[C@H](OC)C[C@@H]12)[C@@H](OC(=O)CCC)O[C@H]3OC(C)=O
REMARK SMILES IDX 7 1 8 2 9 3 10 4 11 5 18 6 20 7 21 8 22 9 23 10 26 11 27 12
REMARK SMILES IDX 28 13 35 14 36 15 6 16 5 17 3 18 4 19 2 20 1 21 12 22 13 23
REMARK SMILES IDX 14 24 15 25 16 26 17 27 19 28 24 30 25 31 37 32 38 33 39 34
REMARK SMILES IDX 40 35 29 36 30 37 31 38 32 39 33 40 34 41
REMARK H PARENT 19 29
ROOT
ATOM      1  C   UNL     1       1.641  -1.333   0.000  1.00  0.00    -0.019 C 
ATOM      2  C   UNL     1       1.953  -2.800   0.000  1.00  0.00     0.012 C 
ATOM      3  C   UNL     1       1.849   0.152   0.000  1.00  0.00     0.036 C 
ATOM      4  C   UNL     1       3.240   0.715   0.000  1.00  0.00     0.012 C 
ATOM      5  C   UNL     1       0.667   1.075   0.000  1.00  0.00     0.209 C 
ATOM      6  C   UNL     1      -0.724   0.513   0.000  1.00  0.00     0.172 C 
ATOM      7  C   UNL     1      -0.932  -0.972   0.000  1.00  0.00     0.093 C 
ATOM      8  C   UNL     1      -2.322  -1.535   0.000  1.00  0.00     0.012 C 
ATOM      9  C   UNL     1      -2.531  -3.020   0.000  1.00  0.00     0.011 C 
ATOM     10  C   UNL     1      -1.349  -3.943   0.000  1.00  0.00     0.141 C 
ATOM     11  C   UNL     1       0.042  -3.381   0.000  1.00  0.00     0.041 C 
ATOM     12  C   UNL     1       0.250  -1.895   0.000  1.00  0.00     0.018 C 
ATOM     13  C   UNL     1      -1.822  -1.771   0.000  1.00  0.00     0.343 C 
ATOM     14  O   UNL     1      -1.705  -1.060   0.000  1.00  0.00    -0.298 OA
ATOM     15  C   UNL     1      -1.127  -1.490   0.000  1.00  0.00     0.328 C 
ENDROOT
BRANCH   1  16
ATOM     16  C   UNL     1       3.140  -1.280   0.000  1.00  0.00     0.035 C 
BRANCH  16  17
ATOM     17  C   UNL     1       3.935  -2.552   0.000  1.00  0.00    -0.023 C 
BRANCH  17  18
ATOM     18  C   UNL     1       5.434  -2.499   0.000  1.00  0.00    -0.056 C 
ATOM     19  C   UNL     1       6.230  -3.771   0.000  1.00  0.00     0.044 C 
BRANCH  18  20
ATOM     20  C   UNL     1       6.138  -1.175   0.000  1.00  0.00    -0.005 C 
ATOM     21  C   UNL     1       7.637  -1.122   0.000  1.00  0.00     0.009 C 
ENDBRANCH  18  20
ENDBRANCH  17  18
ENDBRANCH  16  17
ENDBRANCH   1  16
BRANCH   5  22
ATOM     22  O   UNL     1       0.875   2.561   0.000  1.00  0.00    -0.459 OA
BRANCH  22  23
ATOM     23  C   UNL     1       2.266   3.123   0.000  1.00  0.00     0.306 C 
ATOM     24  O   UNL     1       3.448   2.200   0.000  1.00  0.00    -0.252 OA
BRANCH  23  25
ATOM     25  C   UNL     1       2.474   4.609   0.000  1.00  0.00     0.122 C 
BRANCH  25  26
ATOM     26  C   UNL     1       3.865   5.171   0.000  1.00  0.00     0.008 C 
ATOM     27  C   UNL     1       4.073   6.657   0.000  1.00  0.00     0.004 C 
ENDBRANCH  25  26
ENDBRANCH  23  25
ENDBRANCH  22  23
ENDBRANCH   5  22
BRANCH   6  28
ATOM     28  O   UNL     1      -1.647   1.695   0.000  1.00  0.00    -0.388 OA
ATOM     29  H   UNL     1       0.000   0.000   0.000  1.00  0.00     0.211 HD
ENDBRANCH   6  28
BRANCH  10  30
ATOM     30  O   UNL     1      -1.557  -5.429   0.000  1.00  0.00    -0.377 OA
ATOM     31  C   UNL     1      -2.947  -5.991   0.000  1.00  0.00     0.195 C 
ENDBRANCH  10  30
BRANCH  15  32
ATOM     32  O   UNL     1       0.112   1.489   0.000  1.00  0.00    -0.435 OA
BRANCH  32  33
ATOM     33  C   UNL     1      -0.149   2.966   0.000  1.00  0.00     0.304 C 
ATOM     34  C   UNL     1       1.000   3.930   0.000  1.00  0.00     0.139 C 
ATOM     35  O   UNL     1      -1.559   3.478   0.000  1.00  0.00    -0.253 OA
ENDBRANCH  32  33
ENDBRANCH  15  32
BRANCH  13  36
ATOM     36  O   UNL     1      -4.783  -0.491   0.000  1.00  0.00    -0.431 OA
BRANCH  36  37
ATOM     37  C   UNL     1      -5.622   0.752   0.000  1.00  0.00     0.308 C 
ATOM     38  O   UNL     1      -4.965   2.101   0.000  1.00  0.00    -0.252 OA
BRANCH  37  39
ATOM     39  C   UNL     1      -7.119   0.647   0.000  1.00  0.00     0.122 C 
BRANCH  39  40
ATOM     40  C   UNL     1      -7.958   1.891   0.000  1.00  0.00     0.008 C 
ATOM     41  C   UNL     1      -9.454   1.786   0.000  1.00  0.00     0.004 C 
ENDBRANCH  39  40
ENDBRANCH  37  39
ENDBRANCH  36  37
ENDBRANCH  13  36
TORSDOF 16
