REMARK SMILES O=C(O[C@@H]1Cc2c(O)cc(O)cc2O[C@@H]1c1cc(O)c(O)c(O)c1)c1cc(O)c(O)c(O)c1
REMARK SMILES IDX 3 1 2 2 1 3 25 4 26 5 33 6 27 7 31 8 29 9 28 10 32 12 30 14
REMARK SMILES IDX 4 16 5 17 15 18 6 19 14 20 7 21 13 22 9 23 12 24 10 25 16 26
REMARK SMILES IDX 17 27 24 28 18 29 22 30 20 31 19 32 23 34 21 36 8 38 11 40
REMARK H PARENT 28 11 32 13 30 15 19 33 23 35 21 37 8 39 11 41
ROOT
ATOM      1  O   UNL     1      -0.506  -0.386   0.000  1.00  0.00    -0.454 OA
ENDROOT
BRANCH   1   2
ATOM      2  C   UNL     1      -1.276  -1.673   0.000  1.00  0.00     0.338 C 
ATOM      3  O   UNL     1      -0.546  -2.984   0.000  1.00  0.00    -0.246 OA
BRANCH   2   4
ATOM      4  C   UNL     1      -2.776  -1.650   0.000  1.00  0.00     0.067 A 
ATOM      5  C   UNL     1      -3.546  -2.937   0.000  1.00  0.00     0.066 A 
ATOM      6  C   UNL     1      -3.506  -0.340   0.000  1.00  0.00     0.066 A 
ATOM      7  C   UNL     1      -5.045  -2.914   0.000  1.00  0.00     0.162 A 
ATOM      8  C   UNL     1      -5.005  -0.317   0.000  1.00  0.00     0.162 A 
ATOM      9  C   UNL     1      -5.775  -1.604   0.000  1.00  0.00     0.200 A 
BRANCH   7  10
ATOM     10  O   UNL     1      -5.816  -4.202   0.000  1.00  0.00    -0.504 OA
ATOM     11  H   UNL     1       0.000   0.000   0.000  1.00  0.00     0.293 HD
ENDBRANCH   7  10
BRANCH   8  12
ATOM     12  O   UNL     1      -5.735   0.994   0.000  1.00  0.00    -0.504 OA
ATOM     13  H   UNL     1       0.000   0.000   0.000  1.00  0.00     0.293 HD
ENDBRANCH   8  12
BRANCH   9  14
ATOM     14  O   UNL     1      -7.275  -1.581   0.000  1.00  0.00    -0.502 OA
ATOM     15  H   UNL     1       0.000   0.000   0.000  1.00  0.00     0.293 HD
ENDBRANCH   9  14
ENDBRANCH   2   4
ENDBRANCH   1   2
BRANCH   1  16
ATOM     16  C   UNL     1       0.994  -0.409   0.000  1.00  0.00     0.227 C 
ATOM     17  C   UNL     1       1.724  -1.720   0.000  1.00  0.00     0.093 C 
ATOM     18  C   UNL     1       1.764   0.878   0.000  1.00  0.00     0.245 C 
ATOM     19  C   UNL     1       3.224  -1.743   0.000  1.00  0.00     0.040 A 
ATOM     20  O   UNL     1       3.264   0.855   0.000  1.00  0.00    -0.481 OA
ATOM     21  C   UNL     1       3.953  -3.053   0.000  1.00  0.00     0.126 A 
ATOM     22  C   UNL     1       3.994  -0.455   0.000  1.00  0.00     0.131 A 
ATOM     23  C   UNL     1       5.453  -3.076   0.000  1.00  0.00     0.092 A 
ATOM     24  C   UNL     1       5.493  -0.478   0.000  1.00  0.00     0.093 A 
ATOM     25  C   UNL     1       6.223  -1.789   0.000  1.00  0.00     0.122 A 
BRANCH  18  26
ATOM     26  C   UNL     1       1.034   2.189   0.000  1.00  0.00     0.004 A 
ATOM     27  C   UNL     1       1.804   3.476   0.000  1.00  0.00     0.058 A 
ATOM     28  C   UNL     1      -0.466   2.212   0.000  1.00  0.00     0.058 A 
ATOM     29  C   UNL     1       1.074   4.787   0.000  1.00  0.00     0.161 A 
ATOM     30  C   UNL     1      -1.196   3.522   0.000  1.00  0.00     0.161 A 
ATOM     31  C   UNL     1      -0.426   4.810   0.000  1.00  0.00     0.200 A 
BRANCH  29  32
ATOM     32  O   UNL     1       1.844   6.074   0.000  1.00  0.00    -0.504 OA
ATOM     33  H   UNL     1       0.000   0.000   0.000  1.00  0.00     0.293 HD
ENDBRANCH  29  32
BRANCH  30  34
ATOM     34  O   UNL     1      -2.696   3.545   0.000  1.00  0.00    -0.504 OA
ATOM     35  H   UNL     1       0.000   0.000   0.000  1.00  0.00     0.293 HD
ENDBRANCH  30  34
BRANCH  31  36
ATOM     36  O   UNL     1      -1.156   6.120   0.000  1.00  0.00    -0.502 OA
ATOM     37  H   UNL     1       0.000   0.000   0.000  1.00  0.00     0.293 HD
ENDBRANCH  31  36
ENDBRANCH  18  26
BRANCH  21  38
ATOM     38  O   UNL     1       3.183  -4.340   0.000  1.00  0.00    -0.507 OA
ATOM     39  H   UNL     1       0.000   0.000   0.000  1.00  0.00     0.293 HD
ENDBRANCH  21  38
BRANCH  25  40
ATOM     40  O   UNL     1       7.723  -1.812   0.000  1.00  0.00    -0.508 OA
ATOM     41  H   UNL     1       0.000   0.000   0.000  1.00  0.00     0.293 HD
ENDBRANCH  25  40
ENDBRANCH   1  16
TORSDOF 12
