REMARK SMILES CC1(C)CC[C@]2(C(=O)O[C@@H]3O[C@H](CO)[C@@H](O)[C@H](O)[C@H]3O)CC[C@]3(C)C(=CC[C@@H]4[C@@]5(C)C[C@@H](O)[C@H](O)C(CO)(CO)[C@@H]5CC[C@]43C)[C@@H]2[C@@H]1O
REMARK SMILES IDX 7 1 8 2 6 3 2 4 4 5 47 6 5 7 46 8 25 9 21 10 23 11 26 12
REMARK SMILES IDX 22 13 44 14 27 15 43 16 28 17 42 18 29 19 41 20 31 21 36 22
REMARK SMILES IDX 32 23 34 24 1 25 3 26 24 27 45 28 30 29 48 30 37 32 38 33
REMARK SMILES IDX 39 35 40 36 33 38 35 40 9 42 10 43 11 44 19 45 12 46 17 47
REMARK SMILES IDX 15 48 20 49 13 51 14 52 18 54 16 56
REMARK H PARENT 48 31 38 34 40 37 33 39 35 41 20 50 14 53 18 55 16 57
ROOT
ATOM      1  C   UNL     1      -3.365  -0.944   0.000  1.00  0.00     0.315 C 
ATOM      2  O   UNL     1      -4.729  -1.567   0.000  1.00  0.00    -0.252 OA
ENDROOT
BRANCH   1   3
ATOM      3  C   UNL     1      -2.143  -1.814   0.000  1.00  0.00     0.077 C 
ATOM      4  C   UNL     1      -2.428  -4.800   0.000  1.00  0.00    -0.009 C 
ATOM      5  C   UNL     1      -3.650  -3.930   0.000  1.00  0.00     0.010 C 
ATOM      6  C   UNL     1      -1.064  -4.177   0.000  1.00  0.00     0.128 C 
ATOM      7  C   UNL     1      -3.508  -2.437   0.000  1.00  0.00     0.020 C 
ATOM      8  C   UNL     1      -0.921  -2.684   0.000  1.00  0.00     0.062 C 
ATOM      9  C   UNL     1       0.443  -2.061   0.000  1.00  0.00    -0.061 C 
ATOM     10  C   UNL     1      -2.001  -0.321   0.000  1.00  0.00     0.020 C 
ATOM     11  C   UNL     1       0.586  -0.568   0.000  1.00  0.00    -0.006 C 
ATOM     12  C   UNL     1       1.665  -2.931   0.000  1.00  0.00    -0.026 C 
ATOM     13  C   UNL     1      -0.636   0.302   0.000  1.00  0.00     0.013 C 
ATOM     14  C   UNL     1       1.950   0.056   0.000  1.00  0.00    -0.020 C 
ATOM     15  C   UNL     1       3.030  -2.307   0.000  1.00  0.00     0.032 C 
ATOM     16  C   UNL     1       2.092   1.549   0.000  1.00  0.00     0.008 C 
ATOM     17  C   UNL     1       3.172  -0.814   0.000  1.00  0.00     0.006 C 
ATOM     18  C   UNL     1       3.457   2.172   0.000  1.00  0.00     0.005 C 
ATOM     19  C   UNL     1       4.536  -0.191   0.000  1.00  0.00    -0.023 C 
ATOM     20  C   UNL     1       4.679   1.302   0.000  1.00  0.00     0.009 C 
ATOM     21  C   UNL     1       5.758  -1.061   0.000  1.00  0.00     0.042 C 
ATOM     22  C   UNL     1       6.043   1.925   0.000  1.00  0.00     0.048 C 
ATOM     23  C   UNL     1       7.123  -0.438   0.000  1.00  0.00     0.144 C 
ATOM     24  C   UNL     1       7.265   1.056   0.000  1.00  0.00     0.154 C 
ATOM     25  C   UNL     1      -1.577  -6.036   0.000  1.00  0.00     0.014 C 
ATOM     26  C   UNL     1      -3.497  -5.853   0.000  1.00  0.00     0.014 C 
ATOM     27  C   UNL     1       1.808  -1.438   0.000  1.00  0.00     0.017 C 
ATOM     28  C   UNL     1       0.728   0.926   0.000  1.00  0.00     0.012 C 
ATOM     29  C   UNL     1       4.394  -1.684   0.000  1.00  0.00     0.012 C 
BRANCH   6  30
ATOM     30  O   UNL     1       0.158  -5.047   0.000  1.00  0.00    -0.392 OA
ATOM     31  H   UNL     1       0.000   0.000   0.000  1.00  0.00     0.211 HD
ENDBRANCH   6  30
BRANCH  22  32
ATOM     32  C   UNL     1       5.192   3.161   0.000  1.00  0.00     0.168 C 
BRANCH  32  33
ATOM     33  O   UNL     1       3.697   3.042   0.000  1.00  0.00    -0.396 OA
ATOM     34  H   UNL     1       0.000   0.000   0.000  1.00  0.00     0.210 HD
ENDBRANCH  32  33
ENDBRANCH  22  32
BRANCH  22  35
ATOM     35  C   UNL     1       7.112   2.978   0.000  1.00  0.00     0.168 C 
BRANCH  35  36
ATOM     36  O   UNL     1       6.735   4.430   0.000  1.00  0.00    -0.396 OA
ATOM     37  H   UNL     1       0.000   0.000   0.000  1.00  0.00     0.210 HD
ENDBRANCH  35  36
ENDBRANCH  22  35
BRANCH  23  38
ATOM     38  O   UNL     1       8.345  -1.308   0.000  1.00  0.00    -0.390 OA
ATOM     39  H   UNL     1       0.000   0.000   0.000  1.00  0.00     0.211 HD
ENDBRANCH  23  38
BRANCH  24  40
ATOM     40  O   UNL     1       8.630   1.679   0.000  1.00  0.00    -0.390 OA
ATOM     41  H   UNL     1       0.000   0.000   0.000  1.00  0.00     0.211 HD
ENDBRANCH  24  40
ENDBRANCH   1   3
BRANCH   1  42
ATOM     42  O   UNL     1      -3.223   0.549   0.000  1.00  0.00    -0.432 OA
BRANCH  42  43
ATOM     43  C   UNL     1      -4.445   1.419   0.000  1.00  0.00     0.342 C 
ATOM     44  O   UNL     1      -4.302   2.912   0.000  1.00  0.00    -0.332 OA
ATOM     45  C   UNL     1      -5.809   0.796   0.000  1.00  0.00     0.214 C 
ATOM     46  C   UNL     1      -5.524   3.782   0.000  1.00  0.00     0.179 C 
ATOM     47  C   UNL     1      -7.031   1.666   0.000  1.00  0.00     0.180 C 
ATOM     48  C   UNL     1      -6.888   3.159   0.000  1.00  0.00     0.177 C 
BRANCH  45  49
ATOM     49  O   UNL     1      -5.952  -0.697   0.000  1.00  0.00    -0.384 OA
ATOM     50  H   UNL     1       0.000   0.000   0.000  1.00  0.00     0.211 HD
ENDBRANCH  45  49
BRANCH  46  51
ATOM     51  C   UNL     1      -5.382   5.276   0.000  1.00  0.00     0.191 C 
BRANCH  51  52
ATOM     52  O   UNL     1      -4.017   5.899   0.000  1.00  0.00    -0.394 OA
ATOM     53  H   UNL     1       0.000   0.000   0.000  1.00  0.00     0.210 HD
ENDBRANCH  51  52
ENDBRANCH  46  51
BRANCH  47  54
ATOM     54  O   UNL     1      -8.395   1.043   0.000  1.00  0.00    -0.387 OA
ATOM     55  H   UNL     1       0.000   0.000   0.000  1.00  0.00     0.211 HD
ENDBRANCH  47  54
BRANCH  48  56
ATOM     56  O   UNL     1      -8.110   4.029   0.000  1.00  0.00    -0.387 OA
ATOM     57  H   UNL     1       0.000   0.000   0.000  1.00  0.00     0.211 HD
ENDBRANCH  48  56
ENDBRANCH  42  43
ENDBRANCH   1  42
TORSDOF 15
