REMARK SMILES C=CC[C@@]12CC(=O)C(O)[C@@](OC)(C1O)[C@@H](c1cc(OC)c3c(c1)OCO3)[C@@H]2C
REMARK SMILES IDX 4 1 5 2 6 3 7 4 8 5 10 6 13 7 15 8 27 9 28 10 3 11 2 12 1 13
REMARK SMILES IDX 14 14 11 16 12 17 16 18 17 19 23 20 18 21 22 22 21 23 24 24
REMARK SMILES IDX 26 25 25 26 19 27 20 28 9 29
REMARK H PARENT 14 15 9 30
ROOT
ATOM      1  C   UNL     1       2.858   0.676   0.000  1.00  0.00     0.013 C 
ATOM      2  C   UNL     1       4.003  -0.293   0.000  1.00  0.00     0.089 C 
ATOM      3  C   UNL     1       3.737  -1.769   0.000  1.00  0.00     0.165 C 
ATOM      4  O   UNL     1       4.883  -2.738   0.000  1.00  0.00    -0.297 OA
ATOM      5  C   UNL     1       2.326  -2.277   0.000  1.00  0.00     0.216 C 
ATOM      6  C   UNL     1       1.181  -1.308   0.000  1.00  0.00     0.134 C 
ATOM      7  C   UNL     1       1.447   0.168   0.000  1.00  0.00     0.157 C 
ATOM      8  C   UNL     1       0.501   0.097   0.000  1.00  0.00     0.061 C 
ATOM      9  C   UNL     1       1.470   1.243   0.000  1.00  0.00     0.006 C 
ATOM     10  C   UNL     1       1.112   2.700   0.000  1.00  0.00     0.009 C 
ENDROOT
BRANCH   1  11
ATOM     11  C   UNL     1       3.124   2.152   0.000  1.00  0.00     0.037 C 
BRANCH  11  12
ATOM     12  C   UNL     1       4.536   2.659   0.000  1.00  0.00    -0.034 C 
ATOM     13  C   UNL     1       4.802   4.136   0.000  1.00  0.00     0.004 C 
ENDBRANCH  11  12
ENDBRANCH   1  11
BRANCH   7  14
ATOM     14  O   UNL     1       0.301   1.136   0.000  1.00  0.00    -0.389 OA
ATOM     15  H   UNL     1       0.000   0.000   0.000  1.00  0.00     0.211 HD
ENDBRANCH   7  14
BRANCH   6  16
ATOM     16  O   UNL     1      -0.231  -1.816   0.000  1.00  0.00    -0.372 OA
ATOM     17  C   UNL     1      -0.497  -3.292   0.000  1.00  0.00     0.196 C 
ENDBRANCH   6  16
BRANCH   8  18
ATOM     18  C   UNL     1      -0.995   0.208   0.000  1.00  0.00    -0.034 A 
ATOM     19  C   UNL     1      -1.839  -1.033   0.000  1.00  0.00     0.054 A 
ATOM     20  C   UNL     1      -1.647   1.558   0.000  1.00  0.00     0.055 A 
ATOM     21  C   UNL     1      -3.334  -0.922   0.000  1.00  0.00     0.165 A 
ATOM     22  C   UNL     1      -3.143   1.669   0.000  1.00  0.00     0.169 A 
ATOM     23  C   UNL     1      -3.987   0.428   0.000  1.00  0.00     0.207 A 
ATOM     24  O   UNL     1      -4.062   2.854   0.000  1.00  0.00    -0.453 OA
ATOM     25  O   UNL     1      -5.427   0.847   0.000  1.00  0.00    -0.450 OA
ATOM     26  C   UNL     1      -5.474   2.346   0.000  1.00  0.00     0.468 C 
BRANCH  21  27
ATOM     27  O   UNL     1      -4.178  -2.163   0.000  1.00  0.00    -0.493 OA
ATOM     28  C   UNL     1      -3.526  -3.513   0.000  1.00  0.00     0.278 C 
ENDBRANCH  21  27
ENDBRANCH   8  18
BRANCH   5  29
ATOM     29  O   UNL     1       2.060  -3.753   0.000  1.00  0.00    -0.382 OA
ATOM     30  H   UNL     1       0.000   0.000   0.000  1.00  0.00     0.211 HD
ENDBRANCH   5  29
TORSDOF 7
