REMARK SMILES CC1=C2C[C@H](C(C)(C)O)CC[C@@]2(C)CCC1
REMARK SMILES IDX 6 1 7 2 8 3 5 4 2 5 3 6 16 7 4 8 12 9 15 10 11 11 14 12
REMARK SMILES IDX 10 13 1 14 13 15 9 16
REMARK H PARENT 9 17
ROOT
ATOM      1  C   UNL     1      -3.090  -0.241   0.000  1.00  0.00     0.062 C 
ATOM      2  C   UNL     1      -2.701  -1.690   0.000  1.00  0.00     0.042 C 
ATOM      3  C   UNL     1      -3.479   1.207   0.000  1.00  0.00     0.042 C 
ENDROOT
BRANCH   1   4
ATOM      4  C   UNL     1      -1.641   0.148   0.000  1.00  0.00     0.024 C 
ATOM      5  C   UNL     1       1.930  -1.583   0.000  1.00  0.00    -0.074 C 
ATOM      6  C   UNL     1       0.869  -0.523   0.000  1.00  0.00    -0.065 C 
ATOM      7  C   UNL     1       3.378  -1.194   0.000  1.00  0.00     0.031 C 
ATOM      8  C   UNL     1      -0.580  -0.912   0.000  1.00  0.00     0.038 C 
ATOM      9  C   UNL     1       1.256   0.926   0.000  1.00  0.00    -0.011 C 
ATOM     10  C   UNL     1       3.766   0.255   0.000  1.00  0.00     0.005 C 
ATOM     11  C   UNL     1       0.195   1.986   0.000  1.00  0.00     0.011 C 
ATOM     12  C   UNL     1       2.705   1.315   0.000  1.00  0.00     0.011 C 
ATOM     13  C   UNL     1      -1.254   1.597   0.000  1.00  0.00     0.008 C 
ATOM     14  C   UNL     1       1.542  -3.033   0.000  1.00  0.00     0.039 C 
ATOM     15  C   UNL     1       1.643   2.375   0.000  1.00  0.00     0.016 C 
ENDBRANCH   1   4
BRANCH   1  16
ATOM     16  O   UNL     1      -4.539  -0.630   0.000  1.00  0.00    -0.390 OA
ATOM     17  H   UNL     1       0.000   0.000   0.000  1.00  0.00     0.211 HD
ENDBRANCH   1  16
TORSDOF 2
