REMARK SMILES CC(C)[C@]12CC[C@@]3(C)O[C@H]3[C@H]1O2
REMARK SMILES IDX 4 1 5 2 6 3 7 4 8 5 9 6 10 7 11 8 12 9 2 10 1 11 3 12
REMARK H PARENT
ROOT
ATOM      1  C   UNL     1      -0.901  -0.231   0.000  1.00  0.00     0.100 C 
ATOM      2  C   UNL     1      -0.350   1.164   0.000  1.00  0.00     0.042 C 
ATOM      3  C   UNL     1       1.133   1.385   0.000  1.00  0.00     0.041 C 
ATOM      4  C   UNL     1       2.066   0.211   0.000  1.00  0.00     0.095 C 
ATOM      5  C   UNL     1       3.241   1.144   0.000  1.00  0.00     0.045 C 
ATOM      6  O   UNL     1       2.999  -0.964   0.000  1.00  0.00    -0.363 OA
ATOM      7  C   UNL     1       1.516  -1.185   0.000  1.00  0.00     0.182 C 
ATOM      8  C   UNL     1       0.032  -1.406   0.000  1.00  0.00     0.183 C 
ATOM      9  O   UNL     1      -1.452  -1.627   0.000  1.00  0.00    -0.363 OA
ENDROOT
BRANCH   1  10
ATOM     10  C   UNL     1      -2.296   0.319   0.000  1.00  0.00     0.018 C 
ATOM     11  C   UNL     1      -2.517   1.803   0.000  1.00  0.00     0.010 C 
ATOM     12  C   UNL     1      -3.471  -0.614   0.000  1.00  0.00     0.010 C 
ENDBRANCH   1  10
TORSDOF 1
