REMARK SMILES C[C@H]1[C@H](C)CC[C@]2(C(=O)O)CC[C@]3(C)C(=CC[C@@H]4[C@@]5(C)CCC(O)C(C)(C)[C@@H]5CC[C@]43C)[C@H]12
REMARK SMILES IDX 1 1 2 2 3 3 4 4 5 5 6 6 7 7 11 8 12 9 13 10 14 11 15 12
REMARK SMILES IDX 16 13 17 14 18 15 19 16 20 17 21 18 22 19 23 20 25 21 26 22
REMARK SMILES IDX 27 23 28 24 29 25 30 26 31 27 32 28 33 29 8 30 9 31 10 32
REMARK SMILES IDX 24 34
REMARK H PARENT 10 33 24 35
ROOT
ATOM      1  C   UNL     1      -2.985  -3.171   0.000  1.00  0.00     0.008 C 
ATOM      2  C   UNL     1      -3.718  -1.863   0.000  1.00  0.00    -0.003 C 
ATOM      3  C   UNL     1      -5.218  -1.843   0.000  1.00  0.00    -0.011 C 
ATOM      4  C   UNL     1      -5.985  -3.132   0.000  1.00  0.00     0.008 C 
ATOM      5  C   UNL     1      -5.951  -0.535   0.000  1.00  0.00     0.005 C 
ATOM      6  C   UNL     1      -5.185   0.755   0.000  1.00  0.00     0.020 C 
ATOM      7  C   UNL     1      -3.685   0.735   0.000  1.00  0.00     0.075 C 
ATOM      8  C   UNL     1      -2.918   2.025   0.000  1.00  0.00     0.020 C 
ATOM      9  C   UNL     1      -1.418   2.005   0.000  1.00  0.00     0.013 C 
ATOM     10  C   UNL     1      -0.685   0.697   0.000  1.00  0.00    -0.006 C 
ATOM     11  C   UNL     1       0.048  -0.612   0.000  1.00  0.00     0.017 C 
ATOM     12  C   UNL     1      -1.452  -0.593   0.000  1.00  0.00    -0.063 C 
ATOM     13  C   UNL     1      -0.719  -1.901   0.000  1.00  0.00    -0.027 C 
ATOM     14  C   UNL     1       0.781  -1.921   0.000  1.00  0.00     0.032 C 
ATOM     15  C   UNL     1       1.548  -0.631   0.000  1.00  0.00     0.006 C 
ATOM     16  C   UNL     1       3.048  -0.651   0.000  1.00  0.00    -0.025 C 
ATOM     17  C   UNL     1       2.281  -1.940   0.000  1.00  0.00     0.012 C 
ATOM     18  C   UNL     1       3.781  -1.959   0.000  1.00  0.00     0.010 C 
ATOM     19  C   UNL     1       5.281  -1.979   0.000  1.00  0.00     0.033 C 
ATOM     20  C   UNL     1       6.048  -0.690   0.000  1.00  0.00     0.120 C 
ATOM     21  C   UNL     1       5.314   0.619   0.000  1.00  0.00    -0.006 C 
ATOM     22  C   UNL     1       5.073   2.099   0.000  1.00  0.00     0.014 C 
ATOM     23  C   UNL     1       6.731   1.114   0.000  1.00  0.00     0.014 C 
ATOM     24  C   UNL     1       3.815   0.638   0.000  1.00  0.00     0.003 C 
ATOM     25  C   UNL     1       3.082   1.947   0.000  1.00  0.00     0.005 C 
ATOM     26  C   UNL     1       1.582   1.966   0.000  1.00  0.00     0.008 C 
ATOM     27  C   UNL     1       0.815   0.677   0.000  1.00  0.00    -0.020 C 
ATOM     28  C   UNL     1       0.082   1.986   0.000  1.00  0.00     0.012 C 
ATOM     29  C   UNL     1      -2.952  -0.573   0.000  1.00  0.00     0.036 C 
ENDROOT
BRANCH   7  30
ATOM     30  C   UNL     1      -4.418   2.044   0.000  1.00  0.00     0.310 C 
ATOM     31  O   UNL     1      -5.918   2.063   0.000  1.00  0.00    -0.252 OA
BRANCH  30  32
ATOM     32  O   UNL     1      -3.651   3.333   0.000  1.00  0.00    -0.481 OA
ATOM     33  H   UNL     1       0.000   0.000   0.000  1.00  0.00     0.296 HD
ENDBRANCH  30  32
ENDBRANCH   7  30
BRANCH  20  34
ATOM     34  O   UNL     1       7.548  -0.709   0.000  1.00  0.00    -0.393 OA
ATOM     35  H   UNL     1       0.000   0.000   0.000  1.00  0.00     0.210 HD
ENDBRANCH  20  34
TORSDOF 3
