REMARK SMILES O=C1C=C(C=Cc2ccc(O)cc2)[C@H]2C(=O)[C@@H]1[C@@H](c1ccc(O)cc1)[C@@H]2c1cc(O)cc(O)c1
REMARK SMILES IDX 5 1 4 2 2 3 3 4 17 5 15 6 18 7 14 8 26 9 1 10 16 11 19 12
REMARK SMILES IDX 20 13 25 14 21 15 24 16 22 17 23 18 27 20 28 21 34 22 29 23
REMARK SMILES IDX 32 24 31 25 30 26 33 28 6 30 7 31 8 32 13 33 9 34 12 35
REMARK SMILES IDX 10 36 11 37
REMARK H PARENT 23 19 30 27 33 29 11 38
ROOT
ATOM      1  C   UNL     1      -2.913  -1.817   0.000  1.00  0.00     0.005 C 
ENDROOT
BRANCH   1   2
ATOM      2  C   UNL     1      -1.438  -2.089   0.000  1.00  0.00    -0.033 C 
ATOM      3  C   UNL     1       0.539  -3.774   0.000  1.00  0.00     0.167 C 
ATOM      4  C   UNL     1      -0.936  -3.502   0.000  1.00  0.00     0.052 C 
ATOM      5  C   UNL     1       1.512  -2.632   0.000  1.00  0.00     0.136 C 
ATOM      6  C   UNL     1       1.010  -1.219   0.000  1.00  0.00     0.152 C 
ATOM      7  C   UNL     1       2.085  -1.246   0.000  1.00  0.00     0.046 C 
ATOM      8  C   UNL     1      -0.465  -0.947   0.000  1.00  0.00     0.095 C 
ATOM      9  C   UNL     1       0.943  -0.273   0.000  1.00  0.00     0.043 C 
ATOM     10  O   UNL     1       1.041  -5.187   0.000  1.00  0.00    -0.294 OA
ATOM     11  O   UNL     1       1.983  -0.077   0.000  1.00  0.00    -0.298 OA
BRANCH   7  12
ATOM     12  C   UNL     1       3.543  -0.894   0.000  1.00  0.00    -0.043 A 
ATOM     13  C   UNL     1       4.577  -1.981   0.000  1.00  0.00     0.008 A 
ATOM     14  C   UNL     1       3.968   0.544   0.000  1.00  0.00     0.008 A 
ATOM     15  C   UNL     1       6.035  -1.630   0.000  1.00  0.00     0.046 A 
ATOM     16  C   UNL     1       5.426   0.896   0.000  1.00  0.00     0.046 A 
ATOM     17  C   UNL     1       6.460  -0.191   0.000  1.00  0.00     0.115 A 
BRANCH  17  18
ATOM     18  O   UNL     1       7.918   0.161   0.000  1.00  0.00    -0.508 OA
ATOM     19  H   UNL     1       0.000   0.000   0.000  1.00  0.00     0.293 HD
ENDBRANCH  17  18
ENDBRANCH   7  12
BRANCH   9  20
ATOM     20  C   UNL     1       1.060   1.223   0.000  1.00  0.00    -0.036 A 
ATOM     21  C   UNL     1       2.413   1.870   0.000  1.00  0.00     0.050 A 
ATOM     22  C   UNL     1      -0.178   2.071   0.000  1.00  0.00     0.050 A 
ATOM     23  C   UNL     1       2.529   3.365   0.000  1.00  0.00     0.119 A 
ATOM     24  C   UNL     1      -0.061   3.566   0.000  1.00  0.00     0.119 A 
ATOM     25  C   UNL     1       1.292   4.213   0.000  1.00  0.00     0.092 A 
BRANCH  23  26
ATOM     26  O   UNL     1       3.882   4.012   0.000  1.00  0.00    -0.508 OA
ATOM     27  H   UNL     1       0.000   0.000   0.000  1.00  0.00     0.293 HD
ENDBRANCH  23  26
BRANCH  24  28
ATOM     28  O   UNL     1      -1.298   4.415   0.000  1.00  0.00    -0.508 OA
ATOM     29  H   UNL     1       0.000   0.000   0.000  1.00  0.00     0.293 HD
ENDBRANCH  24  28
ENDBRANCH   9  20
ENDBRANCH   1   2
BRANCH   1  30
ATOM     30  C   UNL     1      -3.415  -0.403   0.000  1.00  0.00     0.008 C 
BRANCH  30  31
ATOM     31  C   UNL     1      -4.891  -0.131   0.000  1.00  0.00    -0.025 A 
ATOM     32  C   UNL     1      -5.393   1.282   0.000  1.00  0.00     0.012 A 
ATOM     33  C   UNL     1      -5.864  -1.273   0.000  1.00  0.00     0.012 A 
ATOM     34  C   UNL     1      -6.868   1.554   0.000  1.00  0.00     0.047 A 
ATOM     35  C   UNL     1      -7.339  -1.001   0.000  1.00  0.00     0.047 A 
ATOM     36  C   UNL     1      -7.841   0.412   0.000  1.00  0.00     0.115 A 
BRANCH  36  37
ATOM     37  O   UNL     1      -9.316   0.684   0.000  1.00  0.00    -0.508 OA
ATOM     38  H   UNL     1       0.000   0.000   0.000  1.00  0.00     0.293 HD
ENDBRANCH  36  37
ENDBRANCH  30  31
ENDBRANCH   1  30
TORSDOF 9
