REMARK SMILES CC(=O)OC[C@H]1O[C@@H](Oc2cc(OC(C)=O)cc3cc(C)c(C(C)=O)c(OC(C)=O)c23)[C@H](OC(C)=O)[C@@H](OC(C)=O)[C@@H]1OC(C)=O
REMARK SMILES IDX 6 1 7 2 8 3 32 4 37 5 42 6 5 7 4 8 2 9 1 10 3 11 43 12 44 13
REMARK SMILES IDX 45 14 46 15 9 16 10 17 11 18 31 19 12 20 26 21 18 22 17 23
REMARK SMILES IDX 22 24 19 25 20 26 21 27 13 28 14 29 15 30 16 31 27 32 28 33
REMARK SMILES IDX 29 34 30 35 23 36 24 37 25 38 38 39 39 40 40 41 41 42 33 43
REMARK SMILES IDX 34 44 35 45 36 46
REMARK H PARENT
ROOT
ATOM      1  C   UNL     1      -2.901   1.607   0.000  1.00  0.00     0.205 C 
ATOM      2  O   UNL     1      -1.406   1.725   0.000  1.00  0.00    -0.329 OA
ATOM      3  C   UNL     1      -0.557   0.489   0.000  1.00  0.00     0.353 C 
ATOM      4  C   UNL     1      -1.203  -0.865   0.000  1.00  0.00     0.290 C 
ATOM      5  C   UNL     1      -2.698  -0.983   0.000  1.00  0.00     0.267 C 
ATOM      6  C   UNL     1      -3.547   0.254   0.000  1.00  0.00     0.254 C 
ENDROOT
BRANCH   1   7
ATOM      7  C   UNL     1      -3.751   2.844   0.000  1.00  0.00     0.269 C 
BRANCH   7   8
ATOM      8  O   UNL     1      -3.105   4.198   0.000  1.00  0.00    -0.463 OA
BRANCH   8   9
ATOM      9  C   UNL     1      -3.954   5.434   0.000  1.00  0.00     0.302 C 
ATOM     10  C   UNL     1      -3.308   6.788   0.000  1.00  0.00     0.139 C 
ATOM     11  O   UNL     1      -5.450   5.317   0.000  1.00  0.00    -0.253 OA
ENDBRANCH   8   9
ENDBRANCH   7   8
ENDBRANCH   1   7
BRANCH   6  12
ATOM     12  O   UNL     1      -5.043   0.136   0.000  1.00  0.00    -0.455 OA
BRANCH  12  13
ATOM     13  C   UNL     1      -5.892   1.373   0.000  1.00  0.00     0.303 C 
ATOM     14  C   UNL     1      -7.388   1.255   0.000  1.00  0.00     0.139 C 
ATOM     15  O   UNL     1      -5.246   2.727   0.000  1.00  0.00    -0.253 OA
ENDBRANCH  12  13
ENDBRANCH   6  12
BRANCH   3  16
ATOM     16  O   UNL     1       0.939   0.606   0.000  1.00  0.00    -0.460 OA
BRANCH  16  17
ATOM     17  C   UNL     1       1.788  -0.630   0.000  1.00  0.00     0.138 A 
ATOM     18  C   UNL     1       1.142  -1.984   0.000  1.00  0.00     0.094 A 
ATOM     19  C   UNL     1       3.284  -0.513   0.000  1.00  0.00     0.068 A 
ATOM     20  C   UNL     1       1.992  -3.220   0.000  1.00  0.00     0.135 A 
ATOM     21  C   UNL     1       3.930   0.841   0.000  1.00  0.00     0.153 A 
ATOM     22  C   UNL     1       4.133  -1.749   0.000  1.00  0.00    -0.007 A 
ATOM     23  C   UNL     1       3.487  -3.103   0.000  1.00  0.00     0.056 A 
ATOM     24  C   UNL     1       5.425   0.958   0.000  1.00  0.00     0.064 A 
ATOM     25  C   UNL     1       5.628  -1.632   0.000  1.00  0.00     0.013 A 
ATOM     26  C   UNL     1       6.274  -0.278   0.000  1.00  0.00    -0.036 A 
ATOM     27  C   UNL     1       7.770  -0.161   0.000  1.00  0.00     0.045 C 
BRANCH  20  28
ATOM     28  O   UNL     1       1.345  -4.574   0.000  1.00  0.00    -0.427 OA
BRANCH  28  29
ATOM     29  C   UNL     1      -0.150  -4.692   0.000  1.00  0.00     0.308 C 
ATOM     30  C   UNL     1      -0.796  -6.045   0.000  1.00  0.00     0.139 C 
ATOM     31  O   UNL     1      -0.747  -4.163   0.000  1.00  0.00    -0.252 OA
ENDBRANCH  28  29
ENDBRANCH  20  28
BRANCH  21  32
ATOM     32  O   UNL     1       3.080   2.077   0.000  1.00  0.00    -0.425 OA
BRANCH  32  33
ATOM     33  C   UNL     1       3.726   3.431   0.000  1.00  0.00     0.308 C 
ATOM     34  C   UNL     1       2.877   4.667   0.000  1.00  0.00     0.139 C 
ATOM     35  O   UNL     1       4.798   3.649   0.000  1.00  0.00    -0.252 OA
ENDBRANCH  32  33
ENDBRANCH  21  32
BRANCH  24  36
ATOM     36  C   UNL     1       6.071   2.312   0.000  1.00  0.00     0.163 C 
ATOM     37  C   UNL     1       5.566   3.282   0.000  1.00  0.00     0.093 C 
ATOM     38  O   UNL     1       7.566   2.429   0.000  1.00  0.00    -0.294 OA
ENDBRANCH  24  36
ENDBRANCH  16  17
ENDBRANCH   3  16
BRANCH   5  39
ATOM     39  O   UNL     1      -3.344  -2.336   0.000  1.00  0.00    -0.454 OA
BRANCH  39  40
ATOM     40  C   UNL     1      -4.840  -2.454   0.000  1.00  0.00     0.303 C 
ATOM     41  C   UNL     1      -5.486  -3.808   0.000  1.00  0.00     0.139 C 
ATOM     42  O   UNL     1      -5.689  -1.217   0.000  1.00  0.00    -0.253 OA
ENDBRANCH  39  40
ENDBRANCH   5  39
BRANCH   4  43
ATOM     43  O   UNL     1      -0.353  -2.102   0.000  1.00  0.00    -0.452 OA
BRANCH  43  44
ATOM     44  C   UNL     1      -0.999  -3.455   0.000  1.00  0.00     0.303 C 
ATOM     45  C   UNL     1      -0.474  -4.860   0.000  1.00  0.00     0.139 C 
ATOM     46  O   UNL     1      -2.495  -3.573   0.000  1.00  0.00    -0.253 OA
ENDBRANCH  43  44
ENDBRANCH   4  43
TORSDOF 16
