REMARK SMILES C=C/C(C)=C\C[C@]1(C)[C@H](C)C[C@H](O)[C@@]23C(=C[C@@H](OC(=O)C(C)CC)C[C@@H]12)[C@@H](OC(C)=O)O[C@H]3OC(C)=O
REMARK SMILES IDX 7 1 8 2 9 3 10 4 11 5 12 6 14 7 15 8 16 9 17 10 25 11 26 12
REMARK SMILES IDX 27 13 32 14 33 15 6 16 5 17 3 18 4 19 2 20 1 21 13 22 18 24
REMARK SMILES IDX 19 25 20 26 21 27 22 28 23 29 24 30 34 31 35 32 36 33 37 34
REMARK SMILES IDX 28 35 29 36 30 37 31 38
REMARK H PARENT 13 23
ROOT
ATOM      1  C   UNL     1      -1.950   0.822   0.000  1.00  0.00    -0.022 C 
ATOM      2  C   UNL     1      -1.345   2.194   0.000  1.00  0.00     0.012 C 
ATOM      3  C   UNL     1      -2.988  -0.261   0.000  1.00  0.00    -0.005 C 
ATOM      4  C   UNL     1      -4.444   0.096   0.000  1.00  0.00     0.008 C 
ATOM      5  C   UNL     1      -2.569  -1.702   0.000  1.00  0.00     0.037 C 
ATOM      6  C   UNL     1      -1.112  -2.059   0.000  1.00  0.00     0.131 C 
ATOM      7  C   UNL     1      -0.074  -0.976   0.000  1.00  0.00     0.089 C 
ATOM      8  C   UNL     1       1.383  -1.333   0.000  1.00  0.00     0.013 C 
ATOM      9  C   UNL     1       2.421  -0.250   0.000  1.00  0.00     0.024 C 
ATOM     10  C   UNL     1       2.002   1.190   0.000  1.00  0.00     0.200 C 
ATOM     11  C   UNL     1       0.545   1.547   0.000  1.00  0.00     0.055 C 
ATOM     12  C   UNL     1      -0.493   0.464   0.000  1.00  0.00     0.019 C 
ATOM     13  C   UNL     1       1.115  -0.849   0.000  1.00  0.00     0.343 C 
ATOM     14  O   UNL     1       0.605  -1.357   0.000  1.00  0.00    -0.298 OA
ATOM     15  C   UNL     1       0.387  -0.670   0.000  1.00  0.00     0.327 C 
ENDROOT
BRANCH   1  16
ATOM     16  C   UNL     1      -3.196   1.656   0.000  1.00  0.00     0.035 C 
BRANCH  16  17
ATOM     17  C   UNL     1      -3.098   3.152   0.000  1.00  0.00    -0.023 C 
BRANCH  17  18
ATOM     18  C   UNL     1      -4.344   3.987   0.000  1.00  0.00    -0.056 C 
ATOM     19  C   UNL     1      -4.245   5.483   0.000  1.00  0.00     0.044 C 
BRANCH  18  20
ATOM     20  C   UNL     1      -5.690   3.324   0.000  1.00  0.00    -0.005 C 
ATOM     21  C   UNL     1      -6.937   4.158   0.000  1.00  0.00     0.009 C 
ENDBRANCH  18  20
ENDBRANCH  17  18
ENDBRANCH  16  17
ENDBRANCH   1  16
BRANCH   6  22
ATOM     22  O   UNL     1      -1.054  -3.558   0.000  1.00  0.00    -0.392 OA
ATOM     23  H   UNL     1       0.000   0.000   0.000  1.00  0.00     0.210 HD
ENDBRANCH   6  22
BRANCH  10  24
ATOM     24  O   UNL     1       3.040   2.273   0.000  1.00  0.00    -0.458 OA
BRANCH  24  25
ATOM     25  C   UNL     1       4.496   1.916   0.000  1.00  0.00     0.309 C 
ATOM     26  O   UNL     1       4.915   0.475   0.000  1.00  0.00    -0.252 OA
BRANCH  25  27
ATOM     27  C   UNL     1       5.534   2.998   0.000  1.00  0.00     0.096 C 
ATOM     28  C   UNL     1       6.991   2.641   0.000  1.00  0.00     0.020 C 
BRANCH  27  29
ATOM     29  C   UNL     1       5.115   4.439   0.000  1.00  0.00     0.011 C 
ATOM     30  C   UNL     1       6.153   5.522   0.000  1.00  0.00     0.005 C 
ENDBRANCH  27  29
ENDBRANCH  25  27
ENDBRANCH  24  25
ENDBRANCH  10  24
BRANCH  15  31
ATOM     31  O   UNL     1      -2.360  -2.361   0.000  1.00  0.00    -0.435 OA
BRANCH  31  32
ATOM     32  C   UNL     1      -3.013  -3.712   0.000  1.00  0.00     0.304 C 
ATOM     33  C   UNL     1      -4.508  -3.822   0.000  1.00  0.00     0.139 C 
ATOM     34  O   UNL     1      -2.169  -4.952   0.000  1.00  0.00    -0.253 OA
ENDBRANCH  31  32
ENDBRANCH  15  31
BRANCH  13  35
ATOM     35  O   UNL     1       2.768  -3.619   0.000  1.00  0.00    -0.432 OA
BRANCH  35  36
ATOM     36  C   UNL     1       2.721  -5.119   0.000  1.00  0.00     0.305 C 
ATOM     37  C   UNL     1       3.997  -5.909   0.000  1.00  0.00     0.139 C 
ATOM     38  O   UNL     1       1.400  -5.828   0.000  1.00  0.00    -0.253 OA
ENDBRANCH  35  36
ENDBRANCH  13  35
TORSDOF 13
