REMARK SMILES CC1(C)CC[C@]2(C)CC[C@@]3(C)[C@]4(C)CCC5C(C)(C)[C@@H](O)CC[C@]5(C)C4C[C@@H]4O[C@@]43C2C1
REMARK SMILES IDX 1 1 2 2 3 3 4 4 5 5 6 6 7 7 8 8 9 9 10 10 11 11 12 12 13 13
REMARK SMILES IDX 14 14 15 15 16 16 17 17 18 18 19 19 20 20 22 21 23 22 24 23
REMARK SMILES IDX 25 24 26 25 27 26 28 27 29 28 30 29 31 30 32 31 21 32
REMARK H PARENT 21 33
ROOT
ATOM      1  C   UNL     1      -5.348  -2.715   0.000  1.00  0.00     0.011 C 
ATOM      2  C   UNL     1      -5.475  -1.220   0.000  1.00  0.00    -0.035 C 
ATOM      3  C   UNL     1      -6.925  -1.605   0.000  1.00  0.00     0.011 C 
ATOM      4  C   UNL     1      -6.106   0.141   0.000  1.00  0.00     0.007 C 
ATOM      5  C   UNL     1      -5.242   1.368   0.000  1.00  0.00     0.008 C 
ATOM      6  C   UNL     1      -3.748   1.234   0.000  1.00  0.00    -0.027 C 
ATOM      7  C   UNL     1      -4.379   2.595   0.000  1.00  0.00     0.012 C 
ATOM      8  C   UNL     1      -2.885   2.460   0.000  1.00  0.00     0.008 C 
ATOM      9  C   UNL     1      -1.391   2.326   0.000  1.00  0.00     0.011 C 
ATOM     10  C   UNL     1      -0.760   0.965   0.000  1.00  0.00     0.005 C 
ATOM     11  C   UNL     1      -0.130  -0.396   0.000  1.00  0.00     0.015 C 
ATOM     12  C   UNL     1       0.734   0.831   0.000  1.00  0.00    -0.021 C 
ATOM     13  C   UNL     1       0.103   2.192   0.000  1.00  0.00     0.012 C 
ATOM     14  C   UNL     1       1.597   2.058   0.000  1.00  0.00     0.008 C 
ATOM     15  C   UNL     1       3.091   1.923   0.000  1.00  0.00     0.005 C 
ATOM     16  C   UNL     1       3.721   0.562   0.000  1.00  0.00     0.003 C 
ATOM     17  C   UNL     1       5.215   0.428   0.000  1.00  0.00    -0.006 C 
ATOM     18  C   UNL     1       6.665   0.813   0.000  1.00  0.00     0.014 C 
ATOM     19  C   UNL     1       5.088   1.923   0.000  1.00  0.00     0.014 C 
ATOM     20  C   UNL     1       5.846  -0.933   0.000  1.00  0.00     0.120 C 
ATOM     21  C   UNL     1       4.983  -2.160   0.000  1.00  0.00     0.033 C 
ATOM     22  C   UNL     1       3.489  -2.025   0.000  1.00  0.00     0.010 C 
ATOM     23  C   UNL     1       2.858  -0.664   0.000  1.00  0.00    -0.026 C 
ATOM     24  C   UNL     1       1.995  -1.891   0.000  1.00  0.00     0.012 C 
ATOM     25  C   UNL     1       1.364  -0.530   0.000  1.00  0.00     0.004 C 
ATOM     26  C   UNL     1       0.501  -1.757   0.000  1.00  0.00     0.040 C 
ATOM     27  C   UNL     1      -0.993  -1.623   0.000  1.00  0.00     0.152 C 
ATOM     28  O   UNL     1      -2.487  -1.488   0.000  1.00  0.00    -0.365 OA
ATOM     29  C   UNL     1      -1.624  -0.262   0.000  1.00  0.00     0.104 C 
ATOM     30  C   UNL     1      -3.118  -0.127   0.000  1.00  0.00     0.031 C 
ATOM     31  C   UNL     1      -3.981  -1.354   0.000  1.00  0.00     0.013 C 
ENDROOT
BRANCH  20  32
ATOM     32  O   UNL     1       7.340  -1.067   0.000  1.00  0.00    -0.393 OA
ATOM     33  H   UNL     1       0.000   0.000   0.000  1.00  0.00     0.210 HD
ENDBRANCH  20  32
TORSDOF 1
