REMARK SMILES C=C(CC[C@@](C)(O)[C@H]1CC[C@]2(C)[C@@H]1CC[C@@H]1[C@@]3(C)CCC(=O)C(C)(C)[C@@H]3CC[C@]12C)C(C)C
REMARK SMILES IDX 3 1 2 2 1 3 31 4 32 5 33 6 4 7 5 8 6 9 7 10 8 12 9 13 13 14
REMARK SMILES IDX 10 15 11 16 14 17 29 18 15 19 28 20 16 21 27 22 17 23 26 24
REMARK SMILES IDX 19 25 23 26 20 27 21 28 12 29 30 30 18 31 24 32 25 33 22 34
REMARK H PARENT 7 11
ROOT
ATOM      1  C   UNL     1       6.012  -0.931   0.000  1.00  0.00     0.033 C 
ENDROOT
BRANCH   1   2
ATOM      2  C   UNL     1       7.075   0.127   0.000  1.00  0.00    -0.075 C 
ATOM      3  C   UNL     1       8.523  -0.264   0.000  1.00  0.00     0.008 C 
BRANCH   2   4
ATOM      4  C   UNL     1       6.689   1.577   0.000  1.00  0.00     0.008 C 
ATOM      5  C   UNL     1       7.752   2.635   0.000  1.00  0.00     0.012 C 
ATOM      6  C   UNL     1       5.241   1.968   0.000  1.00  0.00     0.012 C 
ENDBRANCH   2   4
ENDBRANCH   1   2
BRANCH   1   7
ATOM      7  C   UNL     1       4.564  -0.540   0.000  1.00  0.00     0.039 C 
BRANCH   7   8
ATOM      8  C   UNL     1       3.501  -1.598   0.000  1.00  0.00     0.065 C 
ATOM      9  C   UNL     1       2.438  -2.657   0.000  1.00  0.00     0.042 C 
BRANCH   8  10
ATOM     10  O   UNL     1       4.559  -2.661   0.000  1.00  0.00    -0.390 OA
ATOM     11  H   UNL     1       0.000   0.000   0.000  1.00  0.00     0.211 HD
ENDBRANCH   8  10
BRANCH   8  12
ATOM     12  C   UNL     1       2.442  -0.535   0.000  1.00  0.00     0.024 C 
ATOM     13  C   UNL     1       2.680   0.946   0.000  1.00  0.00     0.007 C 
ATOM     14  C   UNL     1       0.960  -0.767   0.000  1.00  0.00     0.001 C 
ATOM     15  C   UNL     1       1.345   1.629   0.000  1.00  0.00     0.008 C 
ATOM     16  C   UNL     1       0.282   0.571   0.000  1.00  0.00    -0.024 C 
ATOM     17  C   UNL     1       0.141  -2.023   0.000  1.00  0.00     0.005 C 
ATOM     18  C   UNL     1      -1.216   0.653   0.000  1.00  0.00    -0.024 C 
ATOM     19  C   UNL     1      -1.357  -1.942   0.000  1.00  0.00     0.005 C 
ATOM     20  C   UNL     1      -1.894   1.991   0.000  1.00  0.00     0.008 C 
ATOM     21  C   UNL     1      -2.035  -0.604   0.000  1.00  0.00     0.002 C 
ATOM     22  C   UNL     1      -3.392   2.072   0.000  1.00  0.00     0.006 C 
ATOM     23  C   UNL     1      -3.533  -0.522   0.000  1.00  0.00    -0.025 C 
ATOM     24  C   UNL     1      -4.211   0.816   0.000  1.00  0.00     0.008 C 
ATOM     25  C   UNL     1      -4.353  -1.778   0.000  1.00  0.00     0.015 C 
ATOM     26  C   UNL     1      -5.709   0.898   0.000  1.00  0.00     0.027 C 
ATOM     27  C   UNL     1      -5.850  -1.697   0.000  1.00  0.00     0.077 C 
ATOM     28  C   UNL     1      -6.529  -0.359   0.000  1.00  0.00     0.138 C 
ATOM     29  C   UNL     1      -0.252   1.972   0.000  1.00  0.00     0.012 C 
ATOM     30  C   UNL     1      -0.537  -0.685   0.000  1.00  0.00     0.012 C 
ATOM     31  C   UNL     1      -2.855  -1.860   0.000  1.00  0.00     0.012 C 
ATOM     32  C   UNL     1      -5.368   2.358   0.000  1.00  0.00     0.020 C 
ATOM     33  C   UNL     1      -7.088   1.487   0.000  1.00  0.00     0.020 C 
ATOM     34  O   UNL     1      -8.026  -0.277   0.000  1.00  0.00    -0.299 OA
ENDBRANCH   8  12
ENDBRANCH   7   8
ENDBRANCH   1   7
TORSDOF 6
