REMARK SMILES C[C@@]12CCC[C@@]3(C)[C@H](c4ccoc4)OC(=O)[C@@]13O2
REMARK SMILES IDX 1 1 2 2 3 3 4 4 5 5 6 6 7 7 8 8 14 9 15 10 16 11 17 12 18 13
REMARK SMILES IDX 9 14 13 15 10 16 12 17 11 18
REMARK H PARENT
ROOT
ATOM      1  C   UNL     1      -1.522   0.423   0.000  1.00  0.00     0.046 C 
ATOM      2  C   UNL     1      -3.022   0.431   0.000  1.00  0.00     0.108 C 
ATOM      3  C   UNL     1      -3.013   1.931   0.000  1.00  0.00     0.039 C 
ATOM      4  C   UNL     1      -1.710   2.674   0.000  1.00  0.00     0.004 C 
ATOM      5  C   UNL     1      -0.415   1.916   0.000  1.00  0.00     0.015 C 
ATOM      6  C   UNL     1      -0.424   0.416   0.000  1.00  0.00     0.052 C 
ATOM      7  C   UNL     1       0.950   1.019   0.000  1.00  0.00     0.019 C 
ATOM      8  C   UNL     1       0.685  -0.594   0.000  1.00  0.00     0.219 C 
ATOM      9  O   UNL     1       0.067  -1.961   0.000  1.00  0.00    -0.454 OA
ATOM     10  C   UNL     1      -1.424  -1.795   0.000  1.00  0.00     0.342 C 
ATOM     11  O   UNL     1      -2.434  -2.904   0.000  1.00  0.00    -0.249 OA
ATOM     12  C   UNL     1      -1.727  -0.326   0.000  1.00  0.00     0.203 C 
ATOM     13  O   UNL     1      -3.030  -1.069   0.000  1.00  0.00    -0.350 OA
ENDROOT
BRANCH   8  14
ATOM     14  C   UNL     1       2.154  -0.290   0.000  1.00  0.00     0.031 A 
ATOM     15  C   UNL     1       2.772   1.077   0.000  1.00  0.00     0.202 A 
ATOM     16  C   UNL     1       3.263  -1.300   0.000  1.00  0.00     0.049 A 
ATOM     17  O   UNL     1       4.263   0.911   0.000  1.00  0.00    -0.472 OA
ATOM     18  C   UNL     1       4.566  -0.558   0.000  1.00  0.00     0.195 A 
ENDBRANCH   8  14
TORSDOF 1
