REMARK SMILES COC(=O)c1ccc2c(c1)CCC(C)(C)O2
REMARK SMILES IDX 3 1 4 2 2 3 1 4 5 5 6 6 10 7 7 8 9 9 8 10 11 11 16 12 12 13
REMARK SMILES IDX 13 14 14 15 15 16
REMARK H PARENT
ROOT
ATOM      1  C   UNL     1      -3.349  -0.347   0.000  1.00  0.00     0.337 C 
ATOM      2  O   UNL     1      -3.756  -1.791   0.000  1.00  0.00    -0.246 OA
ENDROOT
BRANCH   1   3
ATOM      3  O   UNL     1      -4.395   0.727   0.000  1.00  0.00    -0.465 OA
ATOM      4  C   UNL     1      -5.849   0.358   0.000  1.00  0.00     0.282 C 
ENDBRANCH   1   3
BRANCH   1   5
ATOM      5  C   UNL     1      -1.895   0.022   0.000  1.00  0.00     0.060 A 
ATOM      6  C   UNL     1      -1.487   1.465   0.000  1.00  0.00     0.019 A 
ATOM      7  C   UNL     1      -0.848  -1.053   0.000  1.00  0.00     0.023 A 
ATOM      8  C   UNL     1      -0.034   1.834   0.000  1.00  0.00     0.047 A 
ATOM      9  C   UNL     1       0.606  -0.684   0.000  1.00  0.00    -0.005 A 
ATOM     10  C   UNL     1       1.013   0.760   0.000  1.00  0.00     0.123 A 
ATOM     11  C   UNL     1       1.652  -1.758   0.000  1.00  0.00     0.043 C 
ATOM     12  O   UNL     1       2.467   1.129   0.000  1.00  0.00    -0.488 OA
ATOM     13  C   UNL     1       3.106  -1.389   0.000  1.00  0.00     0.053 C 
ATOM     14  C   UNL     1       3.514   0.054   0.000  1.00  0.00     0.104 C 
ATOM     15  C   UNL     1       4.864  -0.597   0.000  1.00  0.00     0.056 C 
ATOM     16  C   UNL     1       4.390   1.272   0.000  1.00  0.00     0.056 C 
ENDBRANCH   1   5
TORSDOF 2
