REMARK SMILES CCCCOC(=O)c1cc(O)c(O)c(O)c1
REMARK SMILES IDX 5 1 4 2 3 3 2 4 1 5 6 6 7 7 8 8 9 9 16 10 10 11 14 12 12 13
REMARK SMILES IDX 11 14 15 16 13 18
REMARK H PARENT 11 15 15 17 13 19
ROOT
ATOM      1  O   UNL     1      -1.896   0.030   0.000  1.00  0.00    -0.462 OA
ENDROOT
BRANCH   1   2
ATOM      2  C   UNL     1      -3.313  -0.461   0.000  1.00  0.00     0.233 C 
BRANCH   2   3
ATOM      3  C   UNL     1      -4.447   0.521   0.000  1.00  0.00     0.041 C 
BRANCH   3   4
ATOM      4  C   UNL     1      -5.864   0.029   0.000  1.00  0.00     0.000 C 
ATOM      5  C   UNL     1      -6.998   1.011   0.000  1.00  0.00     0.004 C 
ENDBRANCH   3   4
ENDBRANCH   2   3
ENDBRANCH   1   2
BRANCH   1   6
ATOM      6  C   UNL     1      -0.762  -0.952   0.000  1.00  0.00     0.338 C 
ATOM      7  O   UNL     1      -1.045  -2.425   0.000  1.00  0.00    -0.246 OA
BRANCH   6   8
ATOM      8  C   UNL     1       0.656  -0.460   0.000  1.00  0.00     0.067 A 
ATOM      9  C   UNL     1       0.939   1.013   0.000  1.00  0.00     0.066 A 
ATOM     10  C   UNL     1       1.790  -1.442   0.000  1.00  0.00     0.066 A 
ATOM     11  C   UNL     1       2.356   1.504   0.000  1.00  0.00     0.162 A 
ATOM     12  C   UNL     1       3.207  -0.951   0.000  1.00  0.00     0.162 A 
ATOM     13  C   UNL     1       3.490   0.523   0.000  1.00  0.00     0.200 A 
BRANCH  11  14
ATOM     14  O   UNL     1       2.639   2.977   0.000  1.00  0.00    -0.504 OA
ATOM     15  H   UNL     1       0.000   0.000   0.000  1.00  0.00     0.293 HD
ENDBRANCH  11  14
BRANCH  12  16
ATOM     16  O   UNL     1       4.341  -1.932   0.000  1.00  0.00    -0.504 OA
ATOM     17  H   UNL     1       0.000   0.000   0.000  1.00  0.00     0.293 HD
ENDBRANCH  12  16
BRANCH  13  18
ATOM     18  O   UNL     1       4.907   1.014   0.000  1.00  0.00    -0.502 OA
ATOM     19  H   UNL     1       0.000   0.000   0.000  1.00  0.00     0.293 HD
ENDBRANCH  13  18
ENDBRANCH   6   8
ENDBRANCH   1   6
TORSDOF 8
