REMARK SMILES COc1cc(OC)c2c(c1)O[C@H](c1ccccc1)CC2=O
REMARK SMILES IDX 3 1 4 2 5 3 8 4 20 5 21 6 19 7 12 8 11 9 9 10 10 11 2 12
REMARK SMILES IDX 1 13 6 14 7 15 13 16 14 17 18 18 15 19 17 20 16 21
REMARK H PARENT
ROOT
ATOM      1  C   UNL     1      -3.155  -1.641   0.000  1.00  0.00     0.126 A 
ATOM      2  C   UNL     1      -3.668  -0.232   0.000  1.00  0.00     0.093 A 
ATOM      3  C   UNL     1      -2.703   0.917   0.000  1.00  0.00     0.137 A 
ATOM      4  C   UNL     1      -1.226   0.656   0.000  1.00  0.00     0.102 A 
ATOM      5  C   UNL     1      -0.262   1.805   0.000  1.00  0.00     0.174 C 
ATOM      6  O   UNL     1      -0.774   3.215   0.000  1.00  0.00    -0.294 OA
ATOM      7  C   UNL     1       1.216   1.544   0.000  1.00  0.00     0.131 C 
ATOM      8  C   UNL     1       1.728   0.135   0.000  1.00  0.00     0.211 C 
ATOM      9  O   UNL     1       0.764  -1.014   0.000  1.00  0.00    -0.484 OA
ATOM     10  C   UNL     1      -0.713  -0.753   0.000  1.00  0.00     0.138 A 
ATOM     11  C   UNL     1      -1.678  -1.902   0.000  1.00  0.00     0.093 A 
ENDROOT
BRANCH   1  12
ATOM     12  O   UNL     1      -4.119  -2.790   0.000  1.00  0.00    -0.496 OA
ATOM     13  C   UNL     1      -5.596  -2.530   0.000  1.00  0.00     0.278 C 
ENDBRANCH   1  12
BRANCH   3  14
ATOM     14  O   UNL     1      -3.216   2.327   0.000  1.00  0.00    -0.496 OA
ATOM     15  C   UNL     1      -4.693   2.587   0.000  1.00  0.00     0.278 C 
ENDBRANCH   3  14
BRANCH   8  16
ATOM     16  C   UNL     1       3.205  -0.126   0.000  1.00  0.00    -0.007 A 
ATOM     17  C   UNL     1       3.718  -1.536   0.000  1.00  0.00     0.007 A 
ATOM     18  C   UNL     1       4.170   1.023   0.000  1.00  0.00     0.007 A 
ATOM     19  C   UNL     1       5.195  -1.797   0.000  1.00  0.00     0.000 A 
ATOM     20  C   UNL     1       5.647   0.762   0.000  1.00  0.00     0.000 A 
ATOM     21  C   UNL     1       6.160  -0.648   0.000  1.00  0.00     0.000 A 
ENDBRANCH   8  16
TORSDOF 3
