REMARK SMILES Cc1c(O)cc(O)c2c1O[C@@H](c1ccc(O)cc1)CC2=O
REMARK SMILES IDX 1 1 2 2 3 3 5 4 6 5 8 6 9 7 10 8 11 9 19 10 20 11 21 12 4 13
REMARK SMILES IDX 7 15 12 17 13 18 18 19 14 20 17 21 15 22 16 23
REMARK H PARENT 4 14 7 16 16 24
ROOT
ATOM      1  C   UNL     1      -1.937  -3.125   0.000  1.00  0.00     0.052 C 
ATOM      2  C   UNL     1      -2.461  -1.720   0.000  1.00  0.00     0.034 A 
ATOM      3  C   UNL     1      -3.941  -1.472   0.000  1.00  0.00     0.125 A 
ATOM      4  C   UNL     1      -4.465  -0.066   0.000  1.00  0.00     0.093 A 
ATOM      5  C   UNL     1      -3.511   1.091   0.000  1.00  0.00     0.133 A 
ATOM      6  C   UNL     1      -2.031   0.843   0.000  1.00  0.00     0.102 A 
ATOM      7  C   UNL     1      -1.507  -0.563   0.000  1.00  0.00     0.141 A 
ATOM      8  O   UNL     1      -0.027  -0.811   0.000  1.00  0.00    -0.484 OA
ATOM      9  C   UNL     1       0.927   0.346   0.000  1.00  0.00     0.211 C 
ATOM     10  C   UNL     1       0.402   1.752   0.000  1.00  0.00     0.131 C 
ATOM     11  C   UNL     1      -1.077   2.000   0.000  1.00  0.00     0.174 C 
ATOM     12  O   UNL     1      -1.602   3.405   0.000  1.00  0.00    -0.294 OA
ENDROOT
BRANCH   3  13
ATOM     13  O   UNL     1      -4.895  -2.629   0.000  1.00  0.00    -0.507 OA
ATOM     14  H   UNL     1       0.000   0.000   0.000  1.00  0.00     0.293 HD
ENDBRANCH   3  13
BRANCH   5  15
ATOM     15  O   UNL     1      -4.035   2.496   0.000  1.00  0.00    -0.507 OA
ATOM     16  H   UNL     1       0.000   0.000   0.000  1.00  0.00     0.293 HD
ENDBRANCH   5  15
BRANCH   9  17
ATOM     17  C   UNL     1       2.406   0.098   0.000  1.00  0.00    -0.007 A 
ATOM     18  C   UNL     1       2.931  -1.307   0.000  1.00  0.00     0.011 A 
ATOM     19  C   UNL     1       3.361   1.255   0.000  1.00  0.00     0.011 A 
ATOM     20  C   UNL     1       4.411  -1.555   0.000  1.00  0.00     0.046 A 
ATOM     21  C   UNL     1       4.840   1.007   0.000  1.00  0.00     0.046 A 
ATOM     22  C   UNL     1       5.365  -0.398   0.000  1.00  0.00     0.115 A 
BRANCH  22  23
ATOM     23  O   UNL     1       6.845  -0.646   0.000  1.00  0.00    -0.508 OA
ATOM     24  H   UNL     1       0.000   0.000   0.000  1.00  0.00     0.293 HD
ENDBRANCH  22  23
ENDBRANCH   9  17
TORSDOF 4
