REMARK SMILES CC(C)=C[C@@H]1C[C@@](C)(/C=C/c2ccc3cc[nH]c3c2)c2cc3cc[nH]c3cc21
REMARK SMILES IDX 5 1 6 2 7 3 8 4 20 5 21 6 22 7 26 8 27 9 28 10 25 11 24 12
REMARK SMILES IDX 23 13 4 15 2 16 1 17 3 18 9 19 10 20 11 21 12 22 19 23 13 24
REMARK SMILES IDX 18 25 14 26 17 27 15 28 16 29
REMARK H PARENT 25 14 17 30
ROOT
ATOM      1  C   UNL     1      -2.429  -1.782   0.000  1.00  0.00     0.043 C 
ATOM      2  C   UNL     1      -0.960  -1.480   0.000  1.00  0.00     0.028 C 
ATOM      3  C   UNL     1      -0.793   0.011   0.000  1.00  0.00     0.012 C 
ATOM      4  C   UNL     1      -0.320   1.434   0.000  1.00  0.00     0.021 C 
ATOM      5  C   UNL     1      -2.159   0.630   0.000  1.00  0.00    -0.034 A 
ATOM      6  C   UNL     1      -2.613   2.060   0.000  1.00  0.00     0.015 A 
ATOM      7  C   UNL     1      -4.078   2.381   0.000  1.00  0.00    -0.000 A 
ATOM      8  C   UNL     1      -5.089   1.274   0.000  1.00  0.00     0.046 A 
ATOM      9  C   UNL     1      -4.635  -0.156   0.000  1.00  0.00     0.031 A 
ATOM     10  C   UNL     1      -3.170  -0.478   0.000  1.00  0.00    -0.035 A 
ATOM     11  N   UNL     1      -6.456   1.893   0.000  1.00  0.00    -0.361 N 
ATOM     12  C   UNL     1      -6.289   3.384   0.000  1.00  0.00     0.083 A 
ATOM     13  C   UNL     1      -4.819   3.686   0.000  1.00  0.00     0.028 A 
ATOM     14  H   UNL     1       0.000   0.000   0.000  1.00  0.00     0.166 HD
ENDROOT
BRANCH   1  15
ATOM     15  C   UNL     1      -3.048  -3.148   0.000  1.00  0.00    -0.020 C 
BRANCH  15  16
ATOM     16  C   UNL     1      -2.175  -4.367   0.000  1.00  0.00    -0.080 C 
ATOM     17  C   UNL     1      -2.794  -5.734   0.000  1.00  0.00     0.039 C 
ATOM     18  C   UNL     1      -0.682  -4.221   0.000  1.00  0.00     0.039 C 
ENDBRANCH  15  16
ENDBRANCH   1  15
BRANCH   3  19
ATOM     19  C   UNL     1       0.672  -0.311   0.000  1.00  0.00    -0.015 C 
BRANCH  19  20
ATOM     20  C   UNL     1       1.683   0.797   0.000  1.00  0.00     0.005 C 
BRANCH  20  21
ATOM     21  C   UNL     1       3.148   0.475   0.000  1.00  0.00    -0.024 A 
ATOM     22  C   UNL     1       3.602  -0.954   0.000  1.00  0.00     0.009 A 
ATOM     23  C   UNL     1       4.160   1.583   0.000  1.00  0.00     0.034 A 
ATOM     24  C   UNL     1       5.067  -1.276   0.000  1.00  0.00     0.011 A 
ATOM     25  C   UNL     1       5.625   1.262   0.000  1.00  0.00     0.046 A 
ATOM     26  C   UNL     1       6.079  -0.168   0.000  1.00  0.00    -0.001 A 
ATOM     27  N   UNL     1       6.844   2.135   0.000  1.00  0.00    -0.361 N 
ATOM     28  C   UNL     1       7.579  -0.178   0.000  1.00  0.00     0.028 A 
ATOM     29  C   UNL     1       8.052   1.246   0.000  1.00  0.00     0.083 A 
ATOM     30  H   UNL     1       0.000   0.000   0.000  1.00  0.00     0.166 HD
ENDBRANCH  20  21
ENDBRANCH  19  20
ENDBRANCH   3  19
TORSDOF 5
