REMARK SMILES CCCC=CCC=CCCCCCCCc1cccc(O)c1
REMARK SMILES IDX 9 1 8 2 7 3 6 4 5 5 4 6 3 7 2 8 1 9 10 10 11 11 12 12 13 13
REMARK SMILES IDX 14 14 15 15 16 16 17 17 22 18 18 19 20 20 19 21 21 22
REMARK H PARENT 21 23
ROOT
ATOM      1  C   UNL     1      -2.565  -0.537   0.000  1.00  0.00     0.027 C 
ENDROOT
BRANCH   1   2
ATOM      2  C   UNL     1      -3.830   0.268   0.000  1.00  0.00    -0.031 C 
BRANCH   2   3
ATOM      3  C   UNL     1      -5.160  -0.425   0.000  1.00  0.00    -0.027 C 
BRANCH   3   4
ATOM      4  C   UNL     1      -6.426   0.381   0.000  1.00  0.00     0.054 C 
BRANCH   4   5
ATOM      5  C   UNL     1      -7.756  -0.312   0.000  1.00  0.00    -0.027 C 
BRANCH   5   6
ATOM      6  C   UNL     1      -9.021   0.493   0.000  1.00  0.00    -0.031 C 
BRANCH   6   7
ATOM      7  C   UNL     1     -10.352  -0.200   0.000  1.00  0.00     0.027 C 
BRANCH   7   8
ATOM      8  C   UNL     1     -11.617   0.606   0.000  1.00  0.00     0.001 C 
ATOM      9  C   UNL     1     -12.947  -0.088   0.000  1.00  0.00     0.004 C 
ENDBRANCH   7   8
ENDBRANCH   6   7
ENDBRANCH   5   6
ENDBRANCH   4   5
ENDBRANCH   3   4
ENDBRANCH   2   3
ENDBRANCH   1   2
BRANCH   1  10
ATOM     10  C   UNL     1      -1.234   0.156   0.000  1.00  0.00     0.004 C 
BRANCH  10  11
ATOM     11  C   UNL     1       0.031  -0.650   0.000  1.00  0.00     0.000 C 
BRANCH  11  12
ATOM     12  C   UNL     1       1.361   0.043   0.000  1.00  0.00     0.000 C 
BRANCH  12  13
ATOM     13  C   UNL     1       2.627  -0.762   0.000  1.00  0.00     0.000 C 
BRANCH  13  14
ATOM     14  C   UNL     1       3.957  -0.069   0.000  1.00  0.00     0.005 C 
BRANCH  14  15
ATOM     15  C   UNL     1       5.222  -0.875   0.000  1.00  0.00     0.035 C 
BRANCH  15  16
ATOM     16  C   UNL     1       6.553  -0.181   0.000  1.00  0.00    -0.044 A 
ATOM     17  C   UNL     1       6.617   1.317   0.000  1.00  0.00     0.004 A 
ATOM     18  C   UNL     1       7.818  -0.987   0.000  1.00  0.00     0.049 A 
ATOM     19  C   UNL     1       7.948   2.010   0.000  1.00  0.00     0.004 A 
ATOM     20  C   UNL     1       9.148  -0.294   0.000  1.00  0.00     0.115 A 
ATOM     21  C   UNL     1       9.213   1.205   0.000  1.00  0.00     0.046 A 
BRANCH  20  22
ATOM     22  O   UNL     1      10.414  -1.099   0.000  1.00  0.00    -0.508 OA
ATOM     23  H   UNL     1       0.000   0.000   0.000  1.00  0.00     0.293 HD
ENDBRANCH  20  22
ENDBRANCH  15  16
ENDBRANCH  14  15
ENDBRANCH  13  14
ENDBRANCH  12  13
ENDBRANCH  11  12
ENDBRANCH  10  11
ENDBRANCH   1  10
TORSDOF 15
