REMARK SMILES CC[C@H](C)/C=C/C1=CC2=C(Cl)C(=O)[C@@]3(C)OC(=O)[C@@H](C(=O)[C@@H](C)[C@H](C)O)[C@H]3C2=CO1
REMARK SMILES IDX 7 1 8 2 9 3 10 4 11 5 12 6 13 7 14 8 15 9 16 10 17 11 18 12
REMARK SMILES IDX 19 13 27 14 28 15 29 16 30 17 6 18 5 19 3 20 4 21 2 22 1 23
REMARK SMILES IDX 20 24 21 25 22 26 23 27 24 28 25 29 26 30
REMARK H PARENT 26 31
ROOT
ATOM      1  C   UNL     1      -2.905   0.242   0.000  1.00  0.00     0.126 C 
ATOM      2  C   UNL     1      -2.342   1.632   0.000  1.00  0.00     0.057 C 
ATOM      3  C   UNL     1      -0.857   1.840   0.000  1.00  0.00     0.007 C 
ATOM      4  C   UNL     1      -0.293   3.230   0.000  1.00  0.00     0.096 C 
ATOM      5  Cl  UNL     1      -1.216   4.413   0.000  1.00  0.00    -0.080 Cl
ATOM      6  C   UNL     1       1.192   3.437   0.000  1.00  0.00     0.218 C 
ATOM      7  O   UNL     1       1.755   4.828   0.000  1.00  0.00    -0.289 OA
ATOM      8  C   UNL     1       2.115   2.255   0.000  1.00  0.00     0.181 C 
ATOM      9  C   UNL     1       2.820   3.578   0.000  1.00  0.00     0.067 C 
ATOM     10  O   UNL     1       3.611   2.148   0.000  1.00  0.00    -0.450 OA
ATOM     11  C   UNL     1       3.972   0.693   0.000  1.00  0.00     0.318 C 
ATOM     12  O   UNL     1       5.363   0.130   0.000  1.00  0.00    -0.251 OA
ATOM     13  C   UNL     1       2.700  -0.101   0.000  1.00  0.00     0.178 C 
ATOM     14  C   UNL     1       1.551   0.864   0.000  1.00  0.00     0.097 C 
ATOM     15  C   UNL     1       0.066   0.657   0.000  1.00  0.00     0.005 C 
ATOM     16  C   UNL     1      -0.497  -0.734   0.000  1.00  0.00     0.200 C 
ATOM     17  O   UNL     1      -1.983  -0.941   0.000  1.00  0.00    -0.465 OA
ENDROOT
BRANCH   1  18
ATOM     18  C   UNL     1      -4.391   0.035   0.000  1.00  0.00     0.043 C 
BRANCH  18  19
ATOM     19  C   UNL     1      -4.954  -1.356   0.000  1.00  0.00    -0.020 C 
BRANCH  19  20
ATOM     20  C   UNL     1      -6.440  -1.563   0.000  1.00  0.00     0.008 C 
ATOM     21  C   UNL     1      -7.003  -2.953   0.000  1.00  0.00     0.012 C 
BRANCH  20  22
ATOM     22  C   UNL     1      -7.362  -0.380   0.000  1.00  0.00     0.004 C 
ATOM     23  C   UNL     1      -8.848  -0.588   0.000  1.00  0.00     0.004 C 
ENDBRANCH  20  22
ENDBRANCH  19  20
ENDBRANCH  18  19
ENDBRANCH   1  18
BRANCH  13  24
ATOM     24  C   UNL     1       2.594  -1.597   0.000  1.00  0.00     0.153 C 
ATOM     25  O   UNL     1       1.245  -2.254   0.000  1.00  0.00    -0.298 OA
BRANCH  24  26
ATOM     26  C   UNL     1       3.837  -2.437   0.000  1.00  0.00     0.082 C 
ATOM     27  C   UNL     1       5.185  -1.781   0.000  1.00  0.00     0.019 C 
BRANCH  26  28
ATOM     28  C   UNL     1       3.731  -3.933   0.000  1.00  0.00     0.121 C 
ATOM     29  C   UNL     1       2.382  -4.590   0.000  1.00  0.00     0.039 C 
BRANCH  28  30
ATOM     30  O   UNL     1       4.973  -4.773   0.000  1.00  0.00    -0.393 OA
ATOM     31  H   UNL     1       0.000   0.000   0.000  1.00  0.00     0.210 HD
ENDBRANCH  28  30
ENDBRANCH  26  28
ENDBRANCH  24  26
ENDBRANCH  13  24
TORSDOF 8
