REMARK SMILES CC(=O)O[C@@H]1[C@@H](OC(C)=O)[C@@H]2C(C)(C)CCC[C@@]2(C)[C@@H]2Cc3occc3[C@H](C=O)[C@@H]12
REMARK SMILES IDX 5 1 6 2 11 3 12 4 13 5 14 6 15 7 16 8 17 9 18 10 19 11 20 12
REMARK SMILES IDX 21 13 22 14 26 15 25 16 24 17 23 18 27 19 30 20 4 21 2 22
REMARK SMILES IDX 1 23 3 24 7 25 8 26 9 27 10 28 28 29 29 30
REMARK H PARENT
ROOT
ATOM      1  C   UNL     1       0.011  -1.191   0.000  1.00  0.00     0.222 C 
ATOM      2  C   UNL     1       1.366  -0.547   0.000  1.00  0.00     0.221 C 
ATOM      3  C   UNL     1       1.485   0.949   0.000  1.00  0.00     0.046 C 
ATOM      4  C   UNL     1       2.839   1.593   0.000  1.00  0.00    -0.028 C 
ATOM      5  C   UNL     1       4.332   1.736   0.000  1.00  0.00     0.011 C 
ATOM      6  C   UNL     1       3.239   0.148   0.000  1.00  0.00     0.011 C 
ATOM      7  C   UNL     1       2.958   3.089   0.000  1.00  0.00     0.007 C 
ATOM      8  C   UNL     1       1.722   3.939   0.000  1.00  0.00     0.001 C 
ATOM      9  C   UNL     1       0.368   3.295   0.000  1.00  0.00     0.007 C 
ATOM     10  C   UNL     1       0.249   1.799   0.000  1.00  0.00    -0.022 C 
ATOM     11  C   UNL     1      -0.986   2.650   0.000  1.00  0.00     0.012 C 
ATOM     12  C   UNL     1      -1.105   1.155   0.000  1.00  0.00     0.011 C 
ATOM     13  C   UNL     1      -2.341   2.005   0.000  1.00  0.00     0.080 C 
ATOM     14  C   UNL     1      -3.695   1.360   0.000  1.00  0.00     0.107 A 
ATOM     15  C   UNL     1      -3.814  -0.135   0.000  1.00  0.00     0.004 A 
ATOM     16  C   UNL     1      -5.273  -0.484   0.000  1.00  0.00     0.046 A 
ATOM     17  C   UNL     1      -6.056   0.796   0.000  1.00  0.00     0.195 A 
ATOM     18  O   UNL     1      -5.081   1.936   0.000  1.00  0.00    -0.469 OA
ATOM     19  C   UNL     1      -2.579  -0.985   0.000  1.00  0.00     0.093 C 
ATOM     20  C   UNL     1      -1.224  -0.341   0.000  1.00  0.00     0.053 C 
ENDROOT
BRANCH   1  21
ATOM     21  O   UNL     1      -0.108  -2.687   0.000  1.00  0.00    -0.458 OA
BRANCH  21  22
ATOM     22  C   UNL     1       1.128  -3.537   0.000  1.00  0.00     0.303 C 
ATOM     23  C   UNL     1       1.009  -5.032   0.000  1.00  0.00     0.139 C 
ATOM     24  O   UNL     1       2.482  -2.893   0.000  1.00  0.00    -0.253 OA
ENDBRANCH  21  22
ENDBRANCH   1  21
BRANCH   2  25
ATOM     25  O   UNL     1       2.601  -1.397   0.000  1.00  0.00    -0.458 OA
BRANCH  25  26
ATOM     26  C   UNL     1       3.956  -0.753   0.000  1.00  0.00     0.303 C 
ATOM     27  C   UNL     1       5.191  -1.603   0.000  1.00  0.00     0.139 C 
ATOM     28  O   UNL     1       4.074   0.743   0.000  1.00  0.00    -0.253 OA
ENDBRANCH  25  26
ENDBRANCH   2  25
BRANCH  19  29
ATOM     29  C   UNL     1      -2.697  -2.481   0.000  1.00  0.00     0.232 C 
ATOM     30  O   UNL     1      -4.052  -3.125   0.000  1.00  0.00    -0.303 OA
ENDBRANCH  19  29
TORSDOF 5
