REMARK SMILES COc1cc2c(cc1OC)[C@]13C[C@@H](OC)C=CC1=CC[N@+]3([O-])CC2
REMARK SMILES IDX 3 1 4 2 5 3 6 4 7 5 8 6 11 7 12 8 13 9 16 10 17 11 18 12
REMARK SMILES IDX 19 13 20 14 21 15 22 16 23 17 24 18 2 19 1 20 9 21 10 22
REMARK SMILES IDX 14 23 15 24
REMARK H PARENT
ROOT
ATOM      1  C   UNL     1       2.422  -1.069   0.000  1.00  0.00     0.161 A 
ATOM      2  C   UNL     1       1.328  -2.095   0.000  1.00  0.00     0.055 A 
ATOM      3  C   UNL     1      -0.108  -1.659   0.000  1.00  0.00    -0.029 A 
ATOM      4  C   UNL     1      -0.448  -0.199   0.000  1.00  0.00     0.025 A 
ATOM      5  C   UNL     1       0.646   0.827   0.000  1.00  0.00     0.061 A 
ATOM      6  C   UNL     1       2.082   0.392   0.000  1.00  0.00     0.161 A 
ATOM      7  C   UNL     1      -1.884   0.237   0.000  1.00  0.00     0.154 C 
ATOM      8  C   UNL     1      -0.686   0.743   0.000  1.00  0.00     0.116 C 
ATOM      9  C   UNL     1      -0.229   1.400   0.000  1.00  0.00     0.147 C 
ATOM     10  C   UNL     1      -0.569   2.124   0.000  1.00  0.00     0.005 C 
ATOM     11  C   UNL     1      -1.366   2.192   0.000  1.00  0.00     0.009 C 
ATOM     12  C   UNL     1      -2.521   1.595   0.000  1.00  0.00     0.019 C 
ATOM     13  C   UNL     1      -4.009   1.409   0.000  1.00  0.00     0.044 C 
ATOM     14  C   UNL     1      -4.292  -0.064   0.000  1.00  0.00     0.294 C 
ATOM     15  N   UNL     1      -2.979  -0.788   0.000  1.00  0.00    -0.346 N 
ATOM     16  O   UNL     1      -4.175  -1.694   0.000  1.00  0.00    -0.632 OA
ATOM     17  C   UNL     1      -2.638  -2.249   0.000  1.00  0.00     0.270 C 
ATOM     18  C   UNL     1      -1.203  -2.685   0.000  1.00  0.00     0.098 C 
ENDROOT
BRANCH   1  19
ATOM     19  O   UNL     1       3.858  -1.505   0.000  1.00  0.00    -0.493 OA
ATOM     20  C   UNL     1       4.199  -2.966   0.000  1.00  0.00     0.278 C 
ENDBRANCH   1  19
BRANCH   6  21
ATOM     21  O   UNL     1       3.176   1.417   0.000  1.00  0.00    -0.493 OA
ATOM     22  C   UNL     1       4.612   0.982   0.000  1.00  0.00     0.278 C 
ENDBRANCH   6  21
BRANCH   9  23
ATOM     23  O   UNL     1       1.963   1.213   0.000  1.00  0.00    -0.377 OA
ATOM     24  C   UNL     1       2.821   2.443   0.000  1.00  0.00     0.195 C 
ENDBRANCH   9  23
TORSDOF 3
