REMARK SMILES COc1c(CC=C(C)C)c(CC=C(C)C)c2ccc(=O)oc2c1O
REMARK SMILES IDX 3 1 4 2 10 3 16 4 17 5 18 6 19 7 20 8 21 9 22 10 23 11 2 12
REMARK SMILES IDX 1 13 5 14 6 15 7 16 8 17 9 18 24 19 11 21 12 22 13 23 14 24
REMARK SMILES IDX 15 25
REMARK H PARENT 24 20
ROOT
ATOM      1  C   UNL     1       0.225   1.794   0.000  1.00  0.00     0.168 A 
ATOM      2  C   UNL     1      -0.484   0.472   0.000  1.00  0.00     0.006 A 
ATOM      3  C   UNL     1       0.306  -0.803   0.000  1.00  0.00    -0.026 A 
ATOM      4  C   UNL     1       1.806  -0.756   0.000  1.00  0.00     0.026 A 
ATOM      5  C   UNL     1       2.596  -2.031   0.000  1.00  0.00     0.020 A 
ATOM      6  C   UNL     1       4.095  -1.984   0.000  1.00  0.00     0.094 A 
ATOM      7  C   UNL     1       4.804  -0.662   0.000  1.00  0.00     0.336 A 
ATOM      8  O   UNL     1       6.304  -0.615   0.000  1.00  0.00    -0.246 OA
ATOM      9  O   UNL     1       4.014   0.613   0.000  1.00  0.00    -0.419 OA
ATOM     10  C   UNL     1       2.515   0.566   0.000  1.00  0.00     0.184 A 
ATOM     11  C   UNL     1       1.725   1.841   0.000  1.00  0.00     0.202 A 
ENDROOT
BRANCH   1  12
ATOM     12  O   UNL     1      -0.565   3.069   0.000  1.00  0.00    -0.492 OA
ATOM     13  C   UNL     1       0.144   4.391   0.000  1.00  0.00     0.278 C 
ENDBRANCH   1  12
BRANCH   2  14
ATOM     14  C   UNL     1      -1.983   0.425   0.000  1.00  0.00     0.067 C 
BRANCH  14  15
ATOM     15  C   UNL     1      -2.773   1.700   0.000  1.00  0.00    -0.023 C 
BRANCH  15  16
ATOM     16  C   UNL     1      -4.272   1.653   0.000  1.00  0.00    -0.080 C 
ATOM     17  C   UNL     1      -5.063   2.928   0.000  1.00  0.00     0.039 C 
ATOM     18  C   UNL     1      -4.981   0.332   0.000  1.00  0.00     0.039 C 
ENDBRANCH  15  16
ENDBRANCH  14  15
ENDBRANCH   2  14
BRANCH  11  19
ATOM     19  O   UNL     1       2.434   3.163   0.000  1.00  0.00    -0.502 OA
ATOM     20  H   UNL     1       0.000   0.000   0.000  1.00  0.00     0.293 HD
ENDBRANCH  11  19
BRANCH   3  21
ATOM     21  C   UNL     1      -0.403  -2.125   0.000  1.00  0.00     0.064 C 
BRANCH  21  22
ATOM     22  C   UNL     1      -1.902  -2.171   0.000  1.00  0.00    -0.024 C 
BRANCH  22  23
ATOM     23  C   UNL     1      -2.611  -3.493   0.000  1.00  0.00    -0.080 C 
ATOM     24  C   UNL     1      -4.110  -3.540   0.000  1.00  0.00     0.039 C 
ATOM     25  C   UNL     1      -1.821  -4.768   0.000  1.00  0.00     0.039 C 
ENDBRANCH  22  23
ENDBRANCH  21  22
ENDBRANCH   3  21
TORSDOF 8
