REMARK SMILES COC(=O)CCCCCCCCCCc1ccccc1
REMARK SMILES IDX 8 1 7 2 6 3 5 4 3 5 4 6 2 7 1 8 9 9 10 10 11 11 12 12 13 13
REMARK SMILES IDX 14 14 15 15 16 16 20 17 17 18 19 19 18 20
REMARK H PARENT
ROOT
ATOM      1  C   UNL     1      -2.897  -0.363   0.000  1.00  0.00     0.000 C 
ENDROOT
BRANCH   1   2
ATOM      2  C   UNL     1      -4.130   0.491   0.000  1.00  0.00     0.001 C 
BRANCH   2   3
ATOM      3  C   UNL     1      -5.487  -0.149   0.000  1.00  0.00     0.012 C 
BRANCH   3   4
ATOM      4  C   UNL     1      -6.720   0.705   0.000  1.00  0.00     0.123 C 
BRANCH   4   5
ATOM      5  C   UNL     1      -8.076   0.064   0.000  1.00  0.00     0.305 C 
ATOM      6  O   UNL     1      -8.199  -1.431   0.000  1.00  0.00    -0.252 OA
BRANCH   5   7
ATOM      7  O   UNL     1      -9.309   0.919   0.000  1.00  0.00    -0.469 OA
ATOM      8  C   UNL     1     -10.665   0.278   0.000  1.00  0.00     0.282 C 
ENDBRANCH   5   7
ENDBRANCH   4   5
ENDBRANCH   3   4
ENDBRANCH   2   3
ENDBRANCH   1   2
BRANCH   1   9
ATOM      9  C   UNL     1      -1.541   0.278   0.000  1.00  0.00     0.000 C 
BRANCH   9  10
ATOM     10  C   UNL     1      -0.308  -0.577   0.000  1.00  0.00     0.000 C 
BRANCH  10  11
ATOM     11  C   UNL     1       1.048   0.064   0.000  1.00  0.00     0.000 C 
BRANCH  11  12
ATOM     12  C   UNL     1       2.281  -0.790   0.000  1.00  0.00     0.000 C 
BRANCH  12  13
ATOM     13  C   UNL     1       3.637  -0.150   0.000  1.00  0.00     0.005 C 
BRANCH  13  14
ATOM     14  C   UNL     1       4.870  -1.004   0.000  1.00  0.00     0.035 C 
BRANCH  14  15
ATOM     15  C   UNL     1       6.227  -0.363   0.000  1.00  0.00    -0.048 A 
ATOM     16  C   UNL     1       6.350   1.132   0.000  1.00  0.00     0.004 A 
ATOM     17  C   UNL     1       7.460  -1.218   0.000  1.00  0.00     0.004 A 
ATOM     18  C   UNL     1       7.706   1.772   0.000  1.00  0.00     0.000 A 
ATOM     19  C   UNL     1       8.816  -0.577   0.000  1.00  0.00     0.000 A 
ATOM     20  C   UNL     1       8.939   0.918   0.000  1.00  0.00     0.000 A 
ENDBRANCH  14  15
ENDBRANCH  13  14
ENDBRANCH  12  13
ENDBRANCH  11  12
ENDBRANCH  10  11
ENDBRANCH   9  10
ENDBRANCH   1   9
TORSDOF 12
