REMARK SMILES C=C1[C@@H](C)[C@H]2[C@H](Cc3ccccc3)NC(=O)C23[C@H](OC(C)=O)/C=C\[C@@](C)(O)C(=O)[C@@H](C)C/C=C\[C@H]3[C@@H]1O
REMARK SMILES IDX 1 1 2 2 3 3 4 4 5 5 6 6 14 7 15 8 16 9 17 10 35 11 36 12
REMARK SMILES IDX 37 14 34 16 33 17 32 18 30 19 31 20 7 22 8 23 9 24 13 25
REMARK SMILES IDX 10 26 12 27 11 28 18 29 19 30 20 31 21 32 22 33 23 34 24 35
REMARK SMILES IDX 25 36 26 37 27 38 28 40 29 41
REMARK H PARENT 14 13 37 15 27 39
REMARK Flexibility Score:   24.900
ROOT
ATOM      1  C   UNL     1       0.031   5.785   0.000  1.00  0.00     0.011 C 
ATOM      2  C   UNL     1      -0.151   4.297   0.000  1.00  0.00    -0.045 C 
ATOM      3  C   UNL     1       1.047   3.394   0.000  1.00  0.00     0.020 C 
ATOM      4  C   UNL     1       2.427   3.980   0.000  1.00  0.00     0.013 C 
ATOM      5  C   UNL     1       0.864   1.905   0.000  1.00  0.00     0.039 C 
ATOM      6  C   UNL     1       1.848   0.773   0.000  1.00  0.00     0.091 C 
ATOM      7  N   UNL     1       1.076  -0.513   0.000  1.00  0.00    -0.352 N 
ATOM      8  C   UNL     1      -0.386  -0.175   0.000  1.00  0.00     0.231 C 
ATOM      9  O   UNL     1      -1.518  -1.160   0.000  1.00  0.00    -0.274 OA
ATOM     10  C   UNL     1      -0.517   1.319   0.000  1.00  0.00     0.104 C 
ATOM     11  C   UNL     1      -1.715   2.221   0.000  1.00  0.00     0.064 C 
ATOM     12  C   UNL     1      -1.532   3.710   0.000  1.00  0.00     0.148 C 
ATOM     13  H   UNL     1       0.000   0.000   0.000  1.00  0.00     0.163 HD
ENDROOT
BRANCH  12  14
ATOM     14  O   UNL     1      -2.730   4.613   0.000  1.00  0.00    -0.388 OA
ATOM     15  H   UNL     1       0.000   0.000   0.000  1.00  0.00     0.211 HD
ENDBRANCH  12  14
BRANCH  11  16
ATOM     16  C   UNL     1      -2.369   1.733   0.000  1.00  0.00    -0.024 C 
BRANCH  16  17
ATOM     17  C   UNL     1      -3.542   0.625   0.000  1.00  0.00    -0.030 C 
BRANCH  17  18
ATOM     18  C   UNL     1      -3.885   0.002   0.000  1.00  0.00     0.038 C 
BRANCH  18  19
ATOM     19  C   UNL     1      -3.837  -0.707   0.000  1.00  0.00     0.060 CG0
ATOM     20  C   UNL     1      -6.557  -1.712   0.000  1.00  0.00     0.016 C 
ATOM     21  G   UNL     1      -3.412  -1.278   0.000  1.00  0.00     0.000 G0
ENDBRANCH  18  19
ENDBRANCH  17  18
ENDBRANCH  16  17
ENDBRANCH  11  16
BRANCH   6  22
ATOM     22  C   UNL     1       3.342   0.904   0.000  1.00  0.00     0.060 C 
BRANCH  22  23
ATOM     23  C   UNL     1       4.203  -0.325   0.000  1.00  0.00    -0.046 A 
ATOM     24  C   UNL     1       3.569  -1.684   0.000  1.00  0.00     0.004 A 
ATOM     25  C   UNL     1       5.697  -0.194   0.000  1.00  0.00     0.004 A 
ATOM     26  C   UNL     1       4.430  -2.913   0.000  1.00  0.00     0.000 A 
ATOM     27  C   UNL     1       6.558  -1.422   0.000  1.00  0.00     0.000 A 
ATOM     28  C   UNL     1       5.924  -2.782   0.000  1.00  0.00     0.000 A 
ENDBRANCH  22  23
ENDBRANCH   6  22
BRANCH  10  29
ATOM     29  C   UNL     1      -0.805   0.555   0.000  1.00  0.00     0.216 C 
BRANCH  29  30
ATOM     30  O   UNL     1       1.500   0.014   0.000  1.00  0.00    -0.457 OA
BRANCH  30  31
ATOM     31  C   UNL     1       2.337  -1.230   0.000  1.00  0.00     0.303 C 
ATOM     32  C   UNL     1       3.813  -1.493   0.000  1.00  0.00     0.139 C 
ATOM     33  O   UNL     1       1.677  -2.578   0.000  1.00  0.00    -0.253 OA
ENDBRANCH  30  31
ENDBRANCH  29  30
BRANCH  29  34
ATOM     34  C   UNL     1      -1.547  -0.878   0.000  1.00  0.00     0.018 C 
BRANCH  34  35
ATOM     35  C   UNL     1      -2.051  -1.379   0.000  1.00  0.00     0.015 C 
BRANCH  35  36
ATOM     36  C   UNL     1      -2.747  -1.528   0.000  1.00  0.00     0.138 C 
ATOM     37  C   UNL     1      -2.074  -4.208   0.000  1.00  0.00     0.055 C 
BRANCH  36  38
ATOM     38  O   UNL     1      -3.809  -4.078   0.000  1.00  0.00    -0.378 OA
ATOM     39  H   UNL     1       0.000   0.000   0.000  1.00  0.00     0.212 HD
ENDBRANCH  36  38
BRANCH  36  40
ATOM     40  C   UNL     1      -3.412  -1.278   0.000  1.00  0.00     0.171 CG0
ATOM     41  O   UNL     1      -5.157  -3.594   0.000  1.00  0.00    -0.296 OA
ATOM     42  G   UNL     1      -3.837  -0.707   0.000  1.00  0.00     0.000 G0
ENDBRANCH  36  40
ENDBRANCH  35  36
ENDBRANCH  34  35
ENDBRANCH  29  34
ENDBRANCH  10  29
TORSDOF 6
