REMARK SMILES COc1cc(-c2oc3c(O)c(OC)cc(OC)c3c(=O)c2OC)cc(OC)c1OC
REMARK SMILES IDX 6 1 21 2 19 3 20 4 18 5 15 6 14 7 11 8 9 9 8 10 7 11 5 12
REMARK SMILES IDX 3 13 4 14 28 15 25 16 24 17 2 18 1 19 29 20 30 21 26 22
REMARK SMILES IDX 27 23 22 24 23 25 10 26 16 28 17 29 12 30 13 31
REMARK H PARENT 10 27
ROOT
ATOM      1  C   UNL     1      -0.198  -0.322   0.000  1.00  0.00     0.181 A 
ATOM      2  C   UNL     1       0.359  -1.714   0.000  1.00  0.00     0.210 A 
ATOM      3  C   UNL     1       1.844  -1.928   0.000  1.00  0.00     0.239 A 
ATOM      4  O   UNL     1       2.401  -3.320   0.000  1.00  0.00    -0.285 OA
ATOM      5  C   UNL     1       2.772  -0.749   0.000  1.00  0.00     0.115 A 
ATOM      6  C   UNL     1       4.256  -0.963   0.000  1.00  0.00     0.137 A 
ATOM      7  C   UNL     1       5.184   0.216   0.000  1.00  0.00     0.097 A 
ATOM      8  C   UNL     1       4.626   1.609   0.000  1.00  0.00     0.168 A 
ATOM      9  C   UNL     1       3.142   1.823   0.000  1.00  0.00     0.202 A 
ATOM     10  C   UNL     1       2.214   0.644   0.000  1.00  0.00     0.188 A 
ATOM     11  O   UNL     1       0.730   0.858   0.000  1.00  0.00    -0.448 OA
ENDROOT
BRANCH   1  12
ATOM     12  C   UNL     1      -1.683  -0.108   0.000  1.00  0.00     0.029 A 
ATOM     13  C   UNL     1      -3.724   1.498   0.000  1.00  0.00     0.165 A 
ATOM     14  C   UNL     1      -2.240   1.285   0.000  1.00  0.00     0.062 A 
ATOM     15  C   UNL     1      -4.652   0.320   0.000  1.00  0.00     0.203 A 
ATOM     16  C   UNL     1      -4.095  -1.073   0.000  1.00  0.00     0.165 A 
ATOM     17  C   UNL     1      -2.610  -1.287   0.000  1.00  0.00     0.062 A 
BRANCH  13  18
ATOM     18  O   UNL     1      -4.282   2.891   0.000  1.00  0.00    -0.493 OA
ATOM     19  C   UNL     1      -3.354   4.070   0.000  1.00  0.00     0.278 C 
ENDBRANCH  13  18
BRANCH  15  20
ATOM     20  O   UNL     1      -6.137   0.533   0.000  1.00  0.00    -0.490 OA
ATOM     21  C   UNL     1      -6.694   1.926   0.000  1.00  0.00     0.278 C 
ENDBRANCH  15  20
BRANCH  16  22
ATOM     22  O   UNL     1      -5.022  -2.252   0.000  1.00  0.00    -0.493 OA
ATOM     23  C   UNL     1      -6.507  -2.038   0.000  1.00  0.00     0.278 C 
ENDBRANCH  16  22
ENDBRANCH   1  12
BRANCH   2  24
ATOM     24  O   UNL     1      -0.568  -2.893   0.000  1.00  0.00    -0.490 OA
ATOM     25  C   UNL     1      -2.053  -2.679   0.000  1.00  0.00     0.278 C 
ENDBRANCH   2  24
BRANCH   9  26
ATOM     26  O   UNL     1       2.584   3.215   0.000  1.00  0.00    -0.502 OA
ATOM     27  H   UNL     1       0.000   0.000   0.000  1.00  0.00     0.293 HD
ENDBRANCH   9  26
BRANCH   6  28
ATOM     28  O   UNL     1       4.814  -2.355   0.000  1.00  0.00    -0.496 OA
ATOM     29  C   UNL     1       6.298  -2.569   0.000  1.00  0.00     0.278 C 
ENDBRANCH   6  28
BRANCH   8  30
ATOM     30  O   UNL     1       5.554   2.788   0.000  1.00  0.00    -0.493 OA
ATOM     31  C   UNL     1       7.038   2.574   0.000  1.00  0.00     0.278 C 
ENDBRANCH   8  30
TORSDOF 8
