REMARK SMILES CC(C)(O)CC[C@@H](O)[C@](C)(O)[C@H]1CC[C@@]2(O)C3=CC(=O)[C@@H]4C[C@@H](O)[C@@H](O)C[C@]4(C)C3CC[C@]12C
REMARK SMILES IDX 6 1 5 2 2 3 1 4 3 5 4 6 7 8 8 9 9 11 10 12 11 13 12 15 13 16
REMARK SMILES IDX 33 17 14 18 32 19 15 20 31 21 17 22 30 23 18 24 28 25 19 26
REMARK SMILES IDX 27 27 21 28 25 29 22 30 23 31 34 32 29 33 20 34 16 35 26 37
REMARK SMILES IDX 24 39
REMARK H PARENT 4 7 8 10 11 14 16 36 26 38 24 40
ROOT
ATOM      1  C   UNL     1       4.338  -0.656   0.000  1.00  0.00     0.038 C 
ENDROOT
BRANCH   1   2
ATOM      2  C   UNL     1       3.913  -2.094   0.000  1.00  0.00     0.037 C 
BRANCH   2   3
ATOM      3  C   UNL     1       4.947  -3.182   0.000  1.00  0.00     0.059 C 
ATOM      4  C   UNL     1       6.034  -2.148   0.000  1.00  0.00     0.042 C 
ATOM      5  C   UNL     1       3.860  -4.215   0.000  1.00  0.00     0.042 C 
BRANCH   3   6
ATOM      6  O   UNL     1       5.981  -4.269   0.000  1.00  0.00    -0.390 OA
ATOM      7  H   UNL     1       0.000   0.000   0.000  1.00  0.00     0.211 HD
ENDBRANCH   3   6
ENDBRANCH   2   3
ENDBRANCH   1   2
BRANCH   1   8
ATOM      8  C   UNL     1       3.304   0.431   0.000  1.00  0.00     0.146 C 
BRANCH   8   9
ATOM      9  O   UNL     1       1.846   0.080   0.000  1.00  0.00    -0.390 OA
ATOM     10  H   UNL     1       0.000   0.000   0.000  1.00  0.00     0.211 HD
ENDBRANCH   8   9
BRANCH   8  11
ATOM     11  C   UNL     1       3.729   1.870   0.000  1.00  0.00     0.091 C 
ATOM     12  C   UNL     1       5.168   1.445   0.000  1.00  0.00     0.045 C 
BRANCH  11  13
ATOM     13  O   UNL     1       4.154   3.309   0.000  1.00  0.00    -0.387 OA
ATOM     14  H   UNL     1       0.000   0.000   0.000  1.00  0.00     0.211 HD
ENDBRANCH  11  13
BRANCH  11  15
ATOM     15  C   UNL     1       2.291   2.295   0.000  1.00  0.00     0.032 C 
ATOM     16  C   UNL     1       1.789   3.708   0.000  1.00  0.00     0.010 C 
ATOM     17  C   UNL     1       1.101   1.380   0.000  1.00  0.00     0.006 C 
ATOM     18  C   UNL     1       0.289   3.667   0.000  1.00  0.00     0.041 C 
ATOM     19  C   UNL     1       0.985  -0.115   0.000  1.00  0.00     0.011 C 
ATOM     20  C   UNL     1      -0.136   2.229   0.000  1.00  0.00     0.092 C 
ATOM     21  C   UNL     1      -0.368  -0.762   0.000  1.00  0.00     0.009 C 
ATOM     22  C   UNL     1      -1.489   1.582   0.000  1.00  0.00    -0.031 C 
ATOM     23  C   UNL     1      -1.605   0.086   0.000  1.00  0.00     0.025 C 
ATOM     24  C   UNL     1      -2.726   2.430   0.000  1.00  0.00     0.050 C 
ATOM     25  C   UNL     1      -2.958  -0.561   0.000  1.00  0.00    -0.013 C 
ATOM     26  C   UNL     1      -4.079   1.783   0.000  1.00  0.00     0.159 C 
ATOM     27  C   UNL     1      -3.075  -2.056   0.000  1.00  0.00     0.042 C 
ATOM     28  C   UNL     1      -4.195   0.288   0.000  1.00  0.00     0.070 C 
ATOM     29  C   UNL     1      -4.428  -2.703   0.000  1.00  0.00     0.143 C 
ATOM     30  C   UNL     1      -5.549  -0.359   0.000  1.00  0.00     0.047 C 
ATOM     31  C   UNL     1      -5.665  -1.855   0.000  1.00  0.00     0.143 C 
ATOM     32  C   UNL     1       2.420   0.666   0.000  1.00  0.00     0.015 C 
ATOM     33  C   UNL     1      -1.721  -1.409   0.000  1.00  0.00     0.013 C 
ATOM     34  O   UNL     1      -5.316   2.632   0.000  1.00  0.00    -0.295 OA
BRANCH  20  35
ATOM     35  O   UNL     1      -1.277   3.202   0.000  1.00  0.00    -0.385 OA
ATOM     36  H   UNL     1       0.000   0.000   0.000  1.00  0.00     0.211 HD
ENDBRANCH  20  35
BRANCH  29  37
ATOM     37  O   UNL     1      -4.544  -4.199   0.000  1.00  0.00    -0.390 OA
ATOM     38  H   UNL     1       0.000   0.000   0.000  1.00  0.00     0.211 HD
ENDBRANCH  29  37
BRANCH  31  39
ATOM     39  O   UNL     1      -7.018  -2.502   0.000  1.00  0.00    -0.390 OA
ATOM     40  H   UNL     1       0.000   0.000   0.000  1.00  0.00     0.211 HD
ENDBRANCH  31  39
ENDBRANCH  11  15
ENDBRANCH   8  11
ENDBRANCH   1   8
TORSDOF 11
