REMARK SMILES COc1c(C)c2c(c(O)c1C=O)C(=O)OC2
REMARK SMILES IDX 3 1 4 2 5 3 6 4 7 5 13 6 14 7 15 8 16 9 8 10 10 11 2 12 1 13
REMARK SMILES IDX 11 14 12 15 9 16
REMARK H PARENT 9 17
ROOT
ATOM      1  C   UNL     1       1.433   0.916   0.000  1.00  0.00     0.136 A 
ATOM      2  C   UNL     1       0.217   1.793   0.000  1.00  0.00    -0.000 A 
ATOM      3  C   UNL     1       0.368   3.285   0.000  1.00  0.00     0.049 C 
ATOM      4  C   UNL     1      -1.151   1.178   0.000  1.00  0.00     0.014 A 
ATOM      5  C   UNL     1      -1.303  -0.315   0.000  1.00  0.00     0.109 A 
ATOM      6  C   UNL     1      -2.769  -0.632   0.000  1.00  0.00     0.342 C 
ATOM      7  O   UNL     1      -3.374  -2.004   0.000  1.00  0.00    -0.246 OA
ATOM      8  O   UNL     1      -3.523   0.664   0.000  1.00  0.00    -0.457 OA
ATOM      9  C   UNL     1      -2.524   1.783   0.000  1.00  0.00     0.270 C 
ATOM     10  C   UNL     1      -0.086  -1.192   0.000  1.00  0.00     0.144 A 
ATOM     11  C   UNL     1       1.282  -0.577   0.000  1.00  0.00     0.099 A 
ENDROOT
BRANCH   1  12
ATOM     12  O   UNL     1       2.802   1.531   0.000  1.00  0.00    -0.496 OA
ATOM     13  C   UNL     1       4.018   0.654   0.000  1.00  0.00     0.278 C 
ENDBRANCH   1  12
BRANCH  11  14
ATOM     14  C   UNL     1       2.499  -1.454   0.000  1.00  0.00     0.267 C 
ATOM     15  O   UNL     1       2.348  -2.946   0.000  1.00  0.00    -0.298 OA
ENDBRANCH  11  14
BRANCH  10  16
ATOM     16  O   UNL     1      -0.237  -2.684   0.000  1.00  0.00    -0.506 OA
ATOM     17  H   UNL     1       0.000   0.000   0.000  1.00  0.00     0.293 HD
ENDBRANCH  10  16
TORSDOF 3
