REMARK SMILES CC1=CCC[C@@]2(C)O[C@@H]2CC(C)(C)/C=C\C1
REMARK SMILES IDX 6 1 7 2 8 3 9 4 5 5 4 6 3 7 2 8 1 9 10 11 11 12 12 13 13 14
REMARK SMILES IDX 14 15 15 16 16 17
REMARK H PARENT
REMARK Flexibility Score:   24.900
ROOT
ATOM      1  C   UNL     1      -1.300  -2.067   0.000  1.00  0.00     0.092 C 
ATOM      2  C   UNL     1      -1.543  -3.547   0.000  1.00  0.00     0.045 C 
ATOM      3  O   UNL     1      -2.796  -2.180   0.000  1.00  0.00    -0.366 OA
ATOM      4  C   UNL     1      -2.145  -0.828   0.000  1.00  0.00     0.151 C 
ENDROOT
BRANCH   1   5
ATOM      5  C   UNL     1       0.081  -2.653   0.000  1.00  0.00     0.042 C 
BRANCH   5   6
ATOM      6  C   UNL     1       1.560  -2.398   0.000  1.00  0.00     0.030 C 
BRANCH   6   7
ATOM      7  C   UNL     1       2.666  -1.385   0.000  1.00  0.00    -0.028 C 
BRANCH   7   8
ATOM      8  C   UNL     1       3.049   0.065   0.000  1.00  0.00    -0.074 CG0
ATOM      9  C   UNL     1       4.548   0.106   0.000  1.00  0.00     0.039 C 
ATOM     10  G   UNL     1       2.587   1.492   0.000  1.00  0.00     0.000 G0
ENDBRANCH   7   8
ENDBRANCH   6   7
ENDBRANCH   5   6
ENDBRANCH   1   5
BRANCH   4  11
ATOM     11  C   UNL     1      -2.187   0.671   0.000  1.00  0.00     0.045 C 
BRANCH  11  12
ATOM     12  C   UNL     1      -1.411   1.955   0.000  1.00  0.00    -0.015 C 
ATOM     13  C   UNL     1      -1.594   3.444   0.000  1.00  0.00     0.015 C 
ATOM     14  C   UNL     1      -2.877   2.268   0.000  1.00  0.00     0.015 C 
BRANCH  12  15
ATOM     15  C   UNL     1      -0.064   2.615   0.000  1.00  0.00    -0.025 C 
BRANCH  15  16
ATOM     16  C   UNL     1       1.426   2.443   0.000  1.00  0.00    -0.026 C 
BRANCH  16  17
ATOM     17  C   UNL     1       2.587   1.492   0.000  1.00  0.00     0.057 CG0
ATOM     18  G   UNL     1       3.049   0.065   0.000  1.00  0.00     0.000 G0
ENDBRANCH  16  17
ENDBRANCH  15  16
ENDBRANCH  12  15
ENDBRANCH  11  12
ENDBRANCH   4  11
TORSDOF 0
