REMARK SMILES COc1cc(-c2oc3c(OC)c(OC)cc(O)c3c(=O)c2OC)cc(OC)c1OC
REMARK SMILES IDX 6 1 21 2 19 3 20 4 18 5 16 6 15 7 12 8 9 9 8 10 7 11 5 12
REMARK SMILES IDX 3 13 4 14 28 15 25 16 24 17 2 18 1 19 29 20 30 21 26 22
REMARK SMILES IDX 27 23 22 24 23 25 10 26 11 27 17 28 13 30 14 31
REMARK H PARENT 17 29
ROOT
ATOM      1  C   UNL     1      -0.157  -0.541   0.000  1.00  0.00     0.181 A 
ATOM      2  C   UNL     1       0.267  -1.980   0.000  1.00  0.00     0.210 A 
ATOM      3  C   UNL     1       1.725  -2.333   0.000  1.00  0.00     0.239 A 
ATOM      4  O   UNL     1       2.148  -3.772   0.000  1.00  0.00    -0.285 OA
ATOM      5  C   UNL     1       2.759  -1.247   0.000  1.00  0.00     0.115 A 
ATOM      6  C   UNL     1       4.217  -1.600   0.000  1.00  0.00     0.134 A 
ATOM      7  C   UNL     1       5.252  -0.513   0.000  1.00  0.00     0.097 A 
ATOM      8  C   UNL     1       4.828   0.925   0.000  1.00  0.00     0.168 A 
ATOM      9  C   UNL     1       3.370   1.278   0.000  1.00  0.00     0.205 A 
ATOM     10  C   UNL     1       2.336   0.192   0.000  1.00  0.00     0.188 A 
ATOM     11  O   UNL     1       0.878   0.545   0.000  1.00  0.00    -0.448 OA
ENDROOT
BRANCH   1  12
ATOM     12  C   UNL     1      -1.615  -0.188   0.000  1.00  0.00     0.029 A 
ATOM     13  C   UNL     1      -3.496   1.603   0.000  1.00  0.00     0.165 A 
ATOM     14  C   UNL     1      -2.038   1.251   0.000  1.00  0.00     0.062 A 
ATOM     15  C   UNL     1      -4.530   0.517   0.000  1.00  0.00     0.203 A 
ATOM     16  C   UNL     1      -4.107  -0.922   0.000  1.00  0.00     0.165 A 
ATOM     17  C   UNL     1      -2.649  -1.275   0.000  1.00  0.00     0.062 A 
BRANCH  13  18
ATOM     18  O   UNL     1      -3.919   3.042   0.000  1.00  0.00    -0.493 OA
ATOM     19  C   UNL     1      -2.885   4.129   0.000  1.00  0.00     0.278 C 
ENDBRANCH  13  18
BRANCH  15  20
ATOM     20  O   UNL     1      -5.988   0.870   0.000  1.00  0.00    -0.490 OA
ATOM     21  C   UNL     1      -6.412   2.309   0.000  1.00  0.00     0.278 C 
ENDBRANCH  15  20
BRANCH  16  22
ATOM     22  O   UNL     1      -5.141  -2.008   0.000  1.00  0.00    -0.493 OA
ATOM     23  C   UNL     1      -6.599  -1.655   0.000  1.00  0.00     0.278 C 
ENDBRANCH  16  22
ENDBRANCH   1  12
BRANCH   2  24
ATOM     24  O   UNL     1      -0.768  -3.066   0.000  1.00  0.00    -0.490 OA
ATOM     25  C   UNL     1      -2.226  -2.714   0.000  1.00  0.00     0.278 C 
ENDBRANCH   2  24
BRANCH   9  26
ATOM     26  O   UNL     1       2.947   2.717   0.000  1.00  0.00    -0.490 OA
ATOM     27  C   UNL     1       3.981   3.804   0.000  1.00  0.00     0.278 C 
ENDBRANCH   9  26
BRANCH   6  28
ATOM     28  O   UNL     1       4.641  -3.039   0.000  1.00  0.00    -0.507 OA
ATOM     29  H   UNL     1       0.000   0.000   0.000  1.00  0.00     0.293 HD
ENDBRANCH   6  28
BRANCH   8  30
ATOM     30  O   UNL     1       5.863   2.012   0.000  1.00  0.00    -0.493 OA
ATOM     31  C   UNL     1       7.321   1.659   0.000  1.00  0.00     0.278 C 
ENDBRANCH   8  30
TORSDOF 8
