REMARK SMILES CC(=O)O[C@H]1C2=COC(C)=CC2=C(C=O)C(=O)[C@]1(C)OC(C)=O
REMARK SMILES IDX 5 1 6 2 7 3 8 4 9 5 10 6 11 7 12 8 13 9 16 10 17 11 18 12
REMARK SMILES IDX 19 13 4 14 2 15 1 16 3 17 20 18 21 19 22 20 23 21 14 22
REMARK SMILES IDX 15 23
REMARK H PARENT
ROOT
ATOM      1  C   UNL     1      -0.240  -0.848   0.000  1.00  0.00     0.262 C 
ATOM      2  C   UNL     1       1.252  -0.993   0.000  1.00  0.00     0.040 C 
ATOM      3  C   UNL     1       1.873  -2.359   0.000  1.00  0.00     0.203 C 
ATOM      4  O   UNL     1       3.366  -2.504   0.000  1.00  0.00    -0.469 OA
ATOM      5  C   UNL     1       4.238  -1.284   0.000  1.00  0.00     0.101 C 
ATOM      6  C   UNL     1       5.731  -1.429   0.000  1.00  0.00     0.087 C 
ATOM      7  C   UNL     1       3.618   0.082   0.000  1.00  0.00     0.051 C 
ATOM      8  C   UNL     1       2.125   0.227   0.000  1.00  0.00     0.002 C 
ATOM      9  C   UNL     1       1.504   1.593   0.000  1.00  0.00     0.070 C 
ATOM     10  C   UNL     1       0.011   1.738   0.000  1.00  0.00     0.214 C 
ATOM     11  O   UNL     1      -0.610   3.104   0.000  1.00  0.00    -0.289 OA
ATOM     12  C   UNL     1      -0.861   0.518   0.000  1.00  0.00     0.212 C 
ATOM     13  C   UNL     1      -1.911   1.589   0.000  1.00  0.00     0.070 C 
ENDROOT
BRANCH   1  14
ATOM     14  O   UNL     1      -1.113  -2.068   0.000  1.00  0.00    -0.453 OA
BRANCH  14  15
ATOM     15  C   UNL     1      -2.606  -1.923   0.000  1.00  0.00     0.303 C 
ATOM     16  C   UNL     1      -3.478  -3.143   0.000  1.00  0.00     0.139 C 
ATOM     17  O   UNL     1      -3.226  -0.557   0.000  1.00  0.00    -0.253 OA
ENDBRANCH  14  15
ENDBRANCH   1  14
BRANCH  12  18
ATOM     18  O   UNL     1      -2.098  -0.331   0.000  1.00  0.00    -0.447 OA
BRANCH  18  19
ATOM     19  C   UNL     1      -3.451   0.316   0.000  1.00  0.00     0.303 C 
ATOM     20  C   UNL     1      -4.688  -0.532   0.000  1.00  0.00     0.139 C 
ATOM     21  O   UNL     1      -3.568   1.812   0.000  1.00  0.00    -0.253 OA
ENDBRANCH  18  19
ENDBRANCH  12  18
BRANCH   9  22
ATOM     22  C   UNL     1       2.376   2.813   0.000  1.00  0.00     0.264 C 
ATOM     23  O   UNL     1       1.756   4.179   0.000  1.00  0.00    -0.298 OA
ENDBRANCH   9  22
TORSDOF 5
