REMARK SMILES C=C1C[C@@]23CC[C@@H]4C(C)(C)CCC[C@@]4(C)C2=CC(=O)[C@@H]1C3
REMARK SMILES IDX 1 1 2 2 3 3 4 4 5 5 6 6 7 7 8 8 9 9 10 10 11 11 12 12 13 13
REMARK SMILES IDX 14 14 15 15 16 16 17 17 18 18 19 19 20 20 21 21
REMARK H PARENT
ROOT
ATOM      1  C   UNL     1      -4.781  -1.881   0.000  1.00  0.00     0.008 C 
ATOM      2  C   UNL     1      -3.449  -1.191   0.000  1.00  0.00    -0.066 C 
ATOM      3  C   UNL     1      -2.108  -1.863   0.000  1.00  0.00     0.042 C 
ATOM      4  C   UNL     1      -1.054  -0.796   0.000  1.00  0.00    -0.003 C 
ATOM      5  C   UNL     1      -0.229  -2.048   0.000  1.00  0.00     0.012 C 
ATOM      6  C   UNL     1       1.268  -1.960   0.000  1.00  0.00     0.006 C 
ATOM      7  C   UNL     1       1.940  -0.619   0.000  1.00  0.00     0.005 C 
ATOM      8  C   UNL     1       3.438  -0.530   0.000  1.00  0.00    -0.032 C 
ATOM      9  C   UNL     1       4.875  -0.959   0.000  1.00  0.00     0.011 C 
ATOM     10  C   UNL     1       3.265  -2.020   0.000  1.00  0.00     0.011 C 
ATOM     11  C   UNL     1       4.110   0.811   0.000  1.00  0.00     0.007 C 
ATOM     12  C   UNL     1       3.285   2.063   0.000  1.00  0.00     0.001 C 
ATOM     13  C   UNL     1       1.787   1.975   0.000  1.00  0.00     0.011 C 
ATOM     14  C   UNL     1       1.115   0.634   0.000  1.00  0.00    -0.007 C 
ATOM     15  C   UNL     1       0.290   1.886   0.000  1.00  0.00     0.016 C 
ATOM     16  C   UNL     1      -0.382   0.545   0.000  1.00  0.00    -0.054 C 
ATOM     17  C   UNL     1      -1.208   1.798   0.000  1.00  0.00     0.048 C 
ATOM     18  C   UNL     1      -2.705   1.709   0.000  1.00  0.00     0.162 C 
ATOM     19  O   UNL     1      -3.530   2.962   0.000  1.00  0.00    -0.294 OA
ATOM     20  C   UNL     1      -3.377   0.368   0.000  1.00  0.00     0.087 C 
ATOM     21  C   UNL     1      -2.552  -0.884   0.000  1.00  0.00     0.028 C 
ENDROOT
TORSDOF 0
