REMARK SMILES C/C=C(\C)C(=O)O[C@@H]1C[C@@]2(C)O[C@@]3(CC2=O)C(CO)=C[C@@H](O)[C@H]13
REMARK SMILES IDX 7 1 5 2 6 3 3 4 4 5 2 6 1 7 8 8 9 9 23 10 10 11 21 12 13 13
REMARK SMILES IDX 12 14 15 15 20 16 14 17 17 18 11 19 16 20 22 21 18 23 19 24
REMARK H PARENT 22 22 19 25
ROOT
ATOM      1  O   UNL     1       1.821  -0.622   0.000  1.00  0.00    -0.458 OA
ENDROOT
BRANCH   1   2
ATOM      2  C   UNL     1       3.075   0.202   0.000  1.00  0.00     0.333 C 
ATOM      3  O   UNL     1       2.988   1.699   0.000  1.00  0.00    -0.247 OA
BRANCH   2   4
ATOM      4  C   UNL     1       4.415  -0.472   0.000  1.00  0.00     0.030 C 
ATOM      5  C   UNL     1       4.502  -1.969   0.000  1.00  0.00     0.052 C 
BRANCH   4   6
ATOM      6  C   UNL     1       5.668   0.352   0.000  1.00  0.00    -0.020 C 
ATOM      7  C   UNL     1       7.009  -0.322   0.000  1.00  0.00     0.036 C 
ENDBRANCH   4   6
ENDBRANCH   2   4
ENDBRANCH   1   2
BRANCH   1   8
ATOM      8  C   UNL     1       0.481   0.052   0.000  1.00  0.00     0.189 C 
ATOM      9  C   UNL     1       0.394   1.549   0.000  1.00  0.00     0.089 C 
ATOM     10  C   UNL     1      -0.773  -0.772   0.000  1.00  0.00     0.100 C 
ATOM     11  C   UNL     1      -1.023   2.070   0.000  1.00  0.00     0.128 C 
ATOM     12  C   UNL     1      -0.999  -2.255   0.000  1.00  0.00     0.147 C 
ATOM     13  C   UNL     1      -2.113  -0.099   0.000  1.00  0.00     0.109 C 
ATOM     14  O   UNL     1      -0.780   0.590   0.000  1.00  0.00    -0.355 OA
ATOM     15  C   UNL     1      -2.506   2.296   0.000  1.00  0.00     0.167 C 
ATOM     16  C   UNL     1      -2.479  -2.498   0.000  1.00  0.00     0.009 C 
ATOM     17  C   UNL     1      -3.179   0.956   0.000  1.00  0.00     0.119 C 
ATOM     18  C   UNL     1      -3.168  -1.165   0.000  1.00  0.00    -0.014 C 
ATOM     19  C   UNL     1       0.032   3.136   0.000  1.00  0.00     0.051 C 
ATOM     20  O   UNL     1      -3.194   3.629   0.000  1.00  0.00    -0.296 OA
BRANCH  12  21
ATOM     21  O   UNL     1       0.067  -3.310   0.000  1.00  0.00    -0.388 OA
ATOM     22  H   UNL     1       0.000   0.000   0.000  1.00  0.00     0.211 HD
ENDBRANCH  12  21
BRANCH  18  23
ATOM     23  C   UNL     1      -4.650  -0.939   0.000  1.00  0.00     0.190 C 
BRANCH  23  24
ATOM     24  O   UNL     1      -5.588  -2.109   0.000  1.00  0.00    -0.392 OA
ATOM     25  H   UNL     1       0.000   0.000   0.000  1.00  0.00     0.211 HD
ENDBRANCH  23  24
ENDBRANCH  18  23
ENDBRANCH   1   8
TORSDOF 7
