REMARK SMILES CC(C)C/C=C/[C@@H](C)[C@H]1CC[C@H]2[C@@H]3CC=C4C[C@@H](O)CC[C@]4(C)[C@H]3CC[C@]12C
REMARK SMILES IDX 6 1 5 2 4 3 2 4 1 5 3 6 7 7 8 8 9 9 10 10 27 11 11 12 26 13
REMARK SMILES IDX 12 14 25 15 13 16 24 17 14 18 22 19 15 20 21 21 16 22 20 23
REMARK SMILES IDX 17 24 18 25 28 26 23 27 19 28
REMARK H PARENT 19 29
ROOT
ATOM      1  C   UNL     1      -3.685  -0.078   0.000  1.00  0.00    -0.028 C 
ENDROOT
BRANCH   1   2
ATOM      2  C   UNL     1      -5.106   0.402   0.000  1.00  0.00    -0.031 C 
BRANCH   2   3
ATOM      3  C   UNL     1      -5.401   1.873   0.000  1.00  0.00     0.030 C 
BRANCH   3   4
ATOM      4  C   UNL     1      -6.822   2.352   0.000  1.00  0.00    -0.014 C 
ATOM      5  C   UNL     1      -7.117   3.823   0.000  1.00  0.00     0.007 C 
ATOM      6  C   UNL     1      -7.948   1.361   0.000  1.00  0.00     0.007 C 
ENDBRANCH   3   4
ENDBRANCH   2   3
ENDBRANCH   1   2
BRANCH   1   7
ATOM      7  C   UNL     1      -3.390  -1.548   0.000  1.00  0.00     0.012 C 
ATOM      8  C   UNL     1      -4.516  -2.539   0.000  1.00  0.00     0.012 C 
BRANCH   7   9
ATOM      9  C   UNL     1      -1.968  -2.028   0.000  1.00  0.00     0.002 C 
ATOM     10  C   UNL     1      -1.521  -3.460   0.000  1.00  0.00     0.005 C 
ATOM     11  C   UNL     1      -0.745  -1.160   0.000  1.00  0.00    -0.026 C 
ATOM     12  C   UNL     1      -0.021  -3.477   0.000  1.00  0.00     0.005 C 
ATOM     13  C   UNL     1      -0.571   0.330   0.000  1.00  0.00     0.007 C 
ATOM     14  C   UNL     1       0.458  -2.056   0.000  1.00  0.00    -0.001 C 
ATOM     15  C   UNL     1       0.806   0.924   0.000  1.00  0.00     0.005 C 
ATOM     16  C   UNL     1       1.836  -1.461   0.000  1.00  0.00     0.000 C 
ATOM     17  C   UNL     1       2.009   0.029   0.000  1.00  0.00     0.003 C 
ATOM     18  C   UNL     1       3.039  -2.357   0.000  1.00  0.00     0.031 C 
ATOM     19  C   UNL     1       3.387   0.623   0.000  1.00  0.00    -0.008 C 
ATOM     20  C   UNL     1       4.416  -1.762   0.000  1.00  0.00    -0.027 C 
ATOM     21  C   UNL     1       3.560   2.113   0.000  1.00  0.00     0.014 C 
ATOM     22  C   UNL     1       4.590  -0.273   0.000  1.00  0.00    -0.065 C 
ATOM     23  C   UNL     1       4.938   2.707   0.000  1.00  0.00     0.033 C 
ATOM     24  C   UNL     1       5.967   0.322   0.000  1.00  0.00     0.063 C 
ATOM     25  C   UNL     1       6.141   1.812   0.000  1.00  0.00     0.118 C 
ATOM     26  C   UNL     1      -2.035  -0.396   0.000  1.00  0.00     0.012 C 
ATOM     27  C   UNL     1       2.183   1.518   0.000  1.00  0.00     0.016 C 
BRANCH  25  28
ATOM     28  O   UNL     1       7.518   2.406   0.000  1.00  0.00    -0.393 OA
ATOM     29  H   UNL     1       0.000   0.000   0.000  1.00  0.00     0.210 HD
ENDBRANCH  25  28
ENDBRANCH   7   9
ENDBRANCH   1   7
TORSDOF 6
