REMARK SMILES C=CC(=C)CC[C@]1(C)[C@H](C)[C@@H](OC(=O)/C=C/C=C/CCCCC)[C@H](OC(C)=O)[C@@]23C(=C[C@H](O)C[C@@H]12)[C@@H](OC(C)=O)O[C@@H]3OC(C)=O
REMARK SMILES IDX 15 1 13 2 14 3 12 4 11 5 7 6 9 7 35 8 34 9 29 10 24 11 32 12
REMARK SMILES IDX 30 13 42 14 31 15 36 16 41 17 8 18 10 19 6 20 5 21 3 22 4 23
REMARK SMILES IDX 2 24 1 25 25 26 26 27 27 28 28 29 33 30 43 32 44 33 45 34
REMARK SMILES IDX 46 35 37 36 38 37 39 38 40 39 16 40 17 41 18 42 19 43 20 44
REMARK SMILES IDX 21 45 22 46 23 47
REMARK H PARENT 33 31
ROOT
ATOM      1  C   UNL     1      -3.023  -0.937   0.000  1.00  0.00     0.093 C 
ENDROOT
BRANCH   1   2
ATOM      2  C   UNL     1      -1.760  -0.128   0.000  1.00  0.00     0.331 C 
ATOM      3  O   UNL     1      -1.828   1.370   0.000  1.00  0.00    -0.247 OA
BRANCH   2   4
ATOM      4  O   UNL     1      -0.428  -0.819   0.000  1.00  0.00    -0.455 OA
BRANCH   4   5
ATOM      5  C   UNL     1       0.836  -0.010   0.000  1.00  0.00     0.222 C 
ATOM      6  C   UNL     1       2.031   2.297   0.000  1.00  0.00    -0.022 C 
ATOM      7  C   UNL     1       0.767   1.488   0.000  1.00  0.00     0.037 C 
ATOM      8  C   UNL     1       3.362   1.607   0.000  1.00  0.00     0.019 C 
ATOM      9  C   UNL     1       4.626   2.415   0.000  1.00  0.00     0.041 C 
ATOM     10  C   UNL     1       3.431   0.108   0.000  1.00  0.00     0.104 C 
ATOM     11  C   UNL     1       2.167  -0.700   0.000  1.00  0.00     0.234 C 
ATOM     12  C   UNL     1       5.958   1.725   0.000  1.00  0.00     0.137 C 
ATOM     13  C   UNL     1       4.763  -0.582   0.000  1.00  0.00     0.013 C 
ATOM     14  C   UNL     1       2.363  -0.945   0.000  1.00  0.00     0.329 C 
ATOM     15  C   UNL     1       6.026   0.227   0.000  1.00  0.00     0.011 C 
ATOM     16  C   UNL     1       4.518  -2.062   0.000  1.00  0.00     0.343 C 
ATOM     17  O   UNL     1       3.035  -2.286   0.000  1.00  0.00    -0.298 OA
ATOM     18  C   UNL     1       2.942   3.489   0.000  1.00  0.00     0.012 C 
ATOM     19  C   UNL     1      -0.565   2.178   0.000  1.00  0.00     0.012 C 
BRANCH   6  20
ATOM     20  C   UNL     1       1.015   3.401   0.000  1.00  0.00     0.012 C 
BRANCH  20  21
ATOM     21  C   UNL     1       1.464   4.832   0.000  1.00  0.00     0.035 C 
BRANCH  21  22
ATOM     22  C   UNL     1       0.448   5.936   0.000  1.00  0.00    -0.056 C 
ATOM     23  C   UNL     1       0.896   7.368   0.000  1.00  0.00     0.012 C 
BRANCH  22  24
ATOM     24  C   UNL     1      -1.016   5.609   0.000  1.00  0.00    -0.005 C 
ATOM     25  C   UNL     1      -2.031   6.713   0.000  1.00  0.00     0.009 C 
ENDBRANCH  22  24
ENDBRANCH  21  22
ENDBRANCH  20  21
ENDBRANCH   6  20
BRANCH  11  26
ATOM     26  O   UNL     1       2.236  -2.199   0.000  1.00  0.00    -0.457 OA
BRANCH  26  27
ATOM     27  C   UNL     1       0.972  -3.007   0.000  1.00  0.00     0.303 C 
ATOM     28  C   UNL     1       1.040  -4.505   0.000  1.00  0.00     0.139 C 
ATOM     29  O   UNL     1      -0.487  -2.660   0.000  1.00  0.00    -0.253 OA
ENDBRANCH  26  27
ENDBRANCH  11  26
BRANCH  12  30
ATOM     30  O   UNL     1       7.221   2.533   0.000  1.00  0.00    -0.389 OA
ATOM     31  H   UNL     1       0.000   0.000   0.000  1.00  0.00     0.211 HD
ENDBRANCH  12  30
BRANCH  14  32
ATOM     32  O   UNL     1       0.883  -0.701   0.000  1.00  0.00    -0.435 OA
BRANCH  32  33
ATOM     33  C   UNL     1      -0.069  -1.860   0.000  1.00  0.00     0.304 C 
ATOM     34  C   UNL     1      -1.549  -1.615   0.000  1.00  0.00     0.139 C 
ATOM     35  O   UNL     1       0.104  -3.350   0.000  1.00  0.00    -0.253 OA
ENDBRANCH  32  33
ENDBRANCH  14  32
BRANCH  16  36
ATOM     36  O   UNL     1       5.571  -3.130   0.000  1.00  0.00    -0.432 OA
BRANCH  36  37
ATOM     37  C   UNL     1       5.173  -4.576   0.000  1.00  0.00     0.305 C 
ATOM     38  C   UNL     1       6.227  -5.644   0.000  1.00  0.00     0.139 C 
ATOM     39  O   UNL     1       3.722  -4.954   0.000  1.00  0.00    -0.253 OA
ENDBRANCH  36  37
ENDBRANCH  16  36
ENDBRANCH   4   5
ENDBRANCH   2   4
ENDBRANCH   1   2
BRANCH   1  40
ATOM     40  C   UNL     1      -4.355  -0.247   0.000  1.00  0.00     0.007 C 
BRANCH  40  41
ATOM     41  C   UNL     1      -5.619  -1.055   0.000  1.00  0.00    -0.004 C 
BRANCH  41  42
ATOM     42  C   UNL     1      -6.951  -0.365   0.000  1.00  0.00    -0.027 C 
BRANCH  42  43
ATOM     43  C   UNL     1      -8.214  -1.173   0.000  1.00  0.00     0.027 C 
BRANCH  43  44
ATOM     44  C   UNL     1      -9.546  -0.483   0.000  1.00  0.00     0.004 C 
BRANCH  44  45
ATOM     45  C   UNL     1     -10.810  -1.292   0.000  1.00  0.00     0.000 C 
BRANCH  45  46
ATOM     46  C   UNL     1     -12.141  -0.602   0.000  1.00  0.00    -0.003 C 
ATOM     47  C   UNL     1     -13.405  -1.410   0.000  1.00  0.00     0.004 C 
ENDBRANCH  45  46
ENDBRANCH  44  45
ENDBRANCH  43  44
ENDBRANCH  42  43
ENDBRANCH  41  42
ENDBRANCH  40  41
ENDBRANCH   1  40
TORSDOF 21
