REMARK SMILES COc1c(C)c2c(c(O)c1OC)C(=O)O[C@H](C)C2
REMARK SMILES IDX 3 1 4 2 5 3 6 4 7 5 13 6 14 7 15 8 16 9 17 10 18 11 8 12
REMARK SMILES IDX 10 13 2 14 1 15 11 16 12 17 9 18
REMARK H PARENT 9 19
ROOT
ATOM      1  C   UNL     1      -1.725   0.848   0.000  1.00  0.00     0.167 A 
ATOM      2  C   UNL     1      -0.420   1.587   0.000  1.00  0.00    -0.001 A 
ATOM      3  C   UNL     1      -0.407   3.087   0.000  1.00  0.00     0.049 C 
ATOM      4  C   UNL     1       0.873   0.826   0.000  1.00  0.00    -0.019 A 
ATOM      5  C   UNL     1       0.860  -0.674   0.000  1.00  0.00     0.109 A 
ATOM      6  C   UNL     1       2.153  -1.435   0.000  1.00  0.00     0.342 C 
ATOM      7  O   UNL     1       2.141  -2.935   0.000  1.00  0.00    -0.246 OA
ATOM      8  O   UNL     1       3.458  -0.696   0.000  1.00  0.00    -0.459 OA
ATOM      9  C   UNL     1       3.471   0.804   0.000  1.00  0.00     0.178 C 
ATOM     10  C   UNL     1       4.776   1.544   0.000  1.00  0.00     0.053 C 
ATOM     11  C   UNL     1       2.178   1.565   0.000  1.00  0.00     0.082 C 
ATOM     12  C   UNL     1      -0.445  -1.413   0.000  1.00  0.00     0.176 A 
ATOM     13  C   UNL     1      -1.738  -0.652   0.000  1.00  0.00     0.204 A 
ENDROOT
BRANCH   1  14
ATOM     14  O   UNL     1      -3.018   1.609   0.000  1.00  0.00    -0.492 OA
ATOM     15  C   UNL     1      -4.323   0.870   0.000  1.00  0.00     0.278 C 
ENDBRANCH   1  14
BRANCH  13  16
ATOM     16  O   UNL     1      -3.043  -1.391   0.000  1.00  0.00    -0.490 OA
ATOM     17  C   UNL     1      -4.335  -0.630   0.000  1.00  0.00     0.278 C 
ENDBRANCH  13  16
BRANCH  12  18
ATOM     18  O   UNL     1      -0.457  -2.913   0.000  1.00  0.00    -0.504 OA
ATOM     19  H   UNL     1       0.000   0.000   0.000  1.00  0.00     0.293 HD
ENDBRANCH  12  18
TORSDOF 3
