REMARK SMILES COc1cc([C@H]2OC[C@H]3[C@@H]2CO[C@@H]3c2cc(OC)c3c(c2)OCO3)cc(OC)c1OC
REMARK SMILES IDX 6 1 7 2 8 3 9 4 10 5 11 6 12 7 13 8 5 9 3 10 4 11 29 12
REMARK SMILES IDX 26 13 25 14 2 15 1 16 30 17 31 18 27 19 28 20 14 21 15 22
REMARK SMILES IDX 21 23 16 24 20 25 19 26 22 27 24 28 23 29 17 30 18 31
REMARK H PARENT
ROOT
ATOM      1  C   UNL     1       1.467  -0.529   0.000  1.00  0.00     0.154 C 
ATOM      2  O   UNL     1       0.837  -1.890   0.000  1.00  0.00    -0.373 OA
ATOM      3  C   UNL     1      -0.652  -1.712   0.000  1.00  0.00     0.168 C 
ATOM      4  C   UNL     1      -0.943  -0.240   0.000  1.00  0.00     0.057 C 
ATOM      5  C   UNL     1       0.367   0.491   0.000  1.00  0.00     0.057 C 
ATOM      6  C   UNL     1       0.077   1.963   0.000  1.00  0.00     0.168 C 
ATOM      7  O   UNL     1      -1.413   2.141   0.000  1.00  0.00    -0.373 OA
ATOM      8  C   UNL     1      -2.043   0.780   0.000  1.00  0.00     0.154 C 
ENDROOT
BRANCH   1   9
ATOM      9  C   UNL     1       2.939  -0.239   0.000  1.00  0.00    -0.011 A 
ATOM     10  C   UNL     1       5.397  -1.078   0.000  1.00  0.00     0.165 A 
ATOM     11  C   UNL     1       3.926  -1.368   0.000  1.00  0.00     0.057 A 
ATOM     12  C   UNL     1       5.882   0.342   0.000  1.00  0.00     0.203 A 
ATOM     13  C   UNL     1       4.895   1.471   0.000  1.00  0.00     0.165 A 
ATOM     14  C   UNL     1       3.423   1.181   0.000  1.00  0.00     0.057 A 
BRANCH  10  15
ATOM     15  O   UNL     1       6.385  -2.207   0.000  1.00  0.00    -0.493 OA
ATOM     16  C   UNL     1       5.900  -3.627   0.000  1.00  0.00     0.278 C 
ENDBRANCH  10  15
BRANCH  12  17
ATOM     17  O   UNL     1       7.354   0.632   0.000  1.00  0.00    -0.490 OA
ATOM     18  C   UNL     1       8.341  -0.497   0.000  1.00  0.00     0.278 C 
ENDBRANCH  12  17
BRANCH  13  19
ATOM     19  O   UNL     1       5.379   2.891   0.000  1.00  0.00    -0.493 OA
ATOM     20  C   UNL     1       6.851   3.181   0.000  1.00  0.00     0.278 C 
ENDBRANCH  13  19
ENDBRANCH   1   9
BRANCH   8  21
ATOM     21  C   UNL     1      -3.514   0.490   0.000  1.00  0.00    -0.011 A 
ATOM     22  C   UNL     1      -3.999  -0.930   0.000  1.00  0.00     0.057 A 
ATOM     23  C   UNL     1      -4.502   1.619   0.000  1.00  0.00     0.057 A 
ATOM     24  C   UNL     1      -5.470  -1.220   0.000  1.00  0.00     0.165 A 
ATOM     25  C   UNL     1      -5.973   1.329   0.000  1.00  0.00     0.170 A 
ATOM     26  C   UNL     1      -6.457  -0.091   0.000  1.00  0.00     0.207 A 
ATOM     27  O   UNL     1      -7.174   2.228   0.000  1.00  0.00    -0.453 OA
ATOM     28  O   UNL     1      -7.957  -0.069   0.000  1.00  0.00    -0.450 OA
ATOM     29  C   UNL     1      -8.400   1.364   0.000  1.00  0.00     0.468 C 
BRANCH  24  30
ATOM     30  O   UNL     1      -5.955  -2.640   0.000  1.00  0.00    -0.493 OA
ATOM     31  C   UNL     1      -4.968  -3.769   0.000  1.00  0.00     0.278 C 
ENDBRANCH  24  30
ENDBRANCH   8  21
TORSDOF 6
