REMARK SMILES C=C(C)[C@@H]1CC[C@]2(C)CC[C@]3(C)[C@H](CC[C@@H]4[C@@]5(C)CC[C@H](O)C(C)(C)[C@@H]5CC[C@]43C)[C@@H]12
REMARK SMILES IDX 4 1 5 2 6 3 7 4 8 5 9 6 10 7 11 8 12 9 13 10 14 11 15 12
REMARK SMILES IDX 16 13 17 14 18 15 19 16 20 17 21 18 23 19 24 20 25 21 26 22
REMARK SMILES IDX 27 23 28 24 29 25 30 26 31 27 2 28 1 29 3 30 22 31
REMARK H PARENT 22 32
ROOT
ATOM      1  C   UNL     1       4.511  -0.961   0.000  1.00  0.00     0.018 C 
ATOM      2  C   UNL     1       5.807  -0.205   0.000  1.00  0.00     0.009 C 
ATOM      3  C   UNL     1       5.489   1.261   0.000  1.00  0.00     0.008 C 
ATOM      4  C   UNL     1       3.996   1.411   0.000  1.00  0.00    -0.029 C 
ATOM      5  C   UNL     1       4.741   2.713   0.000  1.00  0.00     0.011 C 
ATOM      6  C   UNL     1       3.110   2.621   0.000  1.00  0.00     0.007 C 
ATOM      7  C   UNL     1       1.619   2.458   0.000  1.00  0.00     0.008 C 
ATOM      8  C   UNL     1       1.014   1.085   0.000  1.00  0.00    -0.024 C 
ATOM      9  C   UNL     1       0.127   2.295   0.000  1.00  0.00     0.012 C 
ATOM     10  C   UNL     1       1.901  -0.125   0.000  1.00  0.00    -0.000 C 
ATOM     11  C   UNL     1       1.296  -1.498   0.000  1.00  0.00     0.005 C 
ATOM     12  C   UNL     1      -0.195  -1.661   0.000  1.00  0.00     0.005 C 
ATOM     13  C   UNL     1      -1.081  -0.451   0.000  1.00  0.00     0.002 C 
ATOM     14  C   UNL     1      -2.572  -0.614   0.000  1.00  0.00    -0.026 C 
ATOM     15  C   UNL     1      -1.686  -1.824   0.000  1.00  0.00     0.012 C 
ATOM     16  C   UNL     1      -3.177  -1.987   0.000  1.00  0.00     0.010 C 
ATOM     17  C   UNL     1      -4.668  -2.150   0.000  1.00  0.00     0.033 C 
ATOM     18  C   UNL     1      -5.555  -0.940   0.000  1.00  0.00     0.120 C 
ATOM     19  C   UNL     1      -4.950   0.433   0.000  1.00  0.00    -0.006 C 
ATOM     20  C   UNL     1      -4.852   1.930   0.000  1.00  0.00     0.014 C 
ATOM     21  C   UNL     1      -6.407   0.790   0.000  1.00  0.00     0.014 C 
ATOM     22  C   UNL     1      -3.459   0.596   0.000  1.00  0.00     0.003 C 
ATOM     23  C   UNL     1      -2.855   1.969   0.000  1.00  0.00     0.005 C 
ATOM     24  C   UNL     1      -1.364   2.132   0.000  1.00  0.00     0.008 C 
ATOM     25  C   UNL     1      -0.477   0.922   0.000  1.00  0.00    -0.024 C 
ATOM     26  C   UNL     1       0.410  -0.288   0.000  1.00  0.00     0.012 C 
ATOM     27  C   UNL     1       3.392   0.038   0.000  1.00  0.00     0.006 C 
ENDROOT
BRANCH   1  28
ATOM     28  C   UNL     1       4.360  -2.453   0.000  1.00  0.00    -0.077 C 
ATOM     29  C   UNL     1       2.993  -3.069   0.000  1.00  0.00     0.008 C 
ATOM     30  C   UNL     1       5.577  -3.330   0.000  1.00  0.00     0.039 C 
ENDBRANCH   1  28
BRANCH  18  31
ATOM     31  O   UNL     1      -7.046  -1.103   0.000  1.00  0.00    -0.393 OA
ATOM     32  H   UNL     1       0.000   0.000   0.000  1.00  0.00     0.210 HD
ENDBRANCH  18  31
TORSDOF 2
