REMARK SMILES CO[C@]12CC[C@]3(CO1)C1CCC[C@H](O)C1C[C@H]1OC(=O)[C@]2(C)C13
REMARK SMILES IDX 3 1 4 2 5 3 6 4 7 5 8 6 9 7 10 8 11 9 12 10 13 11 15 12
REMARK SMILES IDX 16 13 17 14 18 15 19 16 20 17 21 18 22 19 23 20 2 21 1 22
REMARK SMILES IDX 14 23
REMARK H PARENT 14 24
ROOT
ATOM      1  C   UNL     1      -2.585  -0.744   0.000  1.00  0.00     0.184 C 
ATOM      2  C   UNL     1      -1.929  -2.093   0.000  1.00  0.00     0.068 C 
ATOM      3  C   UNL     1      -0.433  -2.200   0.000  1.00  0.00     0.016 C 
ATOM      4  C   UNL     1       0.408  -0.958   0.000  1.00  0.00     0.005 C 
ATOM      5  C   UNL     1      -0.408  -0.849   0.000  1.00  0.00     0.171 C 
ATOM      6  O   UNL     1      -1.761  -0.752   0.000  1.00  0.00    -0.348 OA
ATOM      7  C   UNL     1       1.902  -0.766   0.000  1.00  0.00     0.004 C 
ATOM      8  C   UNL     1       2.695  -2.039   0.000  1.00  0.00     0.005 C 
ATOM      9  C   UNL     1       4.194  -1.990   0.000  1.00  0.00     0.003 C 
ATOM     10  C   UNL     1       4.900  -0.666   0.000  1.00  0.00     0.032 C 
ATOM     11  C   UNL     1       4.108   0.607   0.000  1.00  0.00     0.118 C 
ATOM     12  C   UNL     1       2.608   0.557   0.000  1.00  0.00     0.025 C 
ATOM     13  C   UNL     1       1.816   1.831   0.000  1.00  0.00     0.052 C 
ATOM     14  C   UNL     1       0.317   1.781   0.000  1.00  0.00     0.182 C 
ATOM     15  O   UNL     1      -0.831   2.747   0.000  1.00  0.00    -0.461 OA
ATOM     16  C   UNL     1      -2.104   1.954   0.000  1.00  0.00     0.318 C 
ATOM     17  O   UNL     1      -3.494   2.518   0.000  1.00  0.00    -0.251 OA
ATOM     18  C   UNL     1      -1.744   0.498   0.000  1.00  0.00     0.126 C 
ATOM     19  C   UNL     1      -3.221   0.761   0.000  1.00  0.00     0.030 C 
ATOM     20  C   UNL     1      -0.248   0.391   0.000  1.00  0.00     0.061 C 
ENDROOT
BRANCH   1  21
ATOM     21  O   UNL     1      -4.081  -0.637   0.000  1.00  0.00    -0.352 OA
ATOM     22  C   UNL     1      -4.922  -1.879   0.000  1.00  0.00     0.198 C 
ENDBRANCH   1  21
BRANCH  11  23
ATOM     23  O   UNL     1       4.814   1.930   0.000  1.00  0.00    -0.393 OA
ATOM     24  H   UNL     1       0.000   0.000   0.000  1.00  0.00     0.210 HD
ENDBRANCH  11  23
TORSDOF 2
