REMARK SMILES C[C@]12C(=O)O[C@@H]3C[C@H]4C5=C(CC[C@H]4[C@@]4(CC[C@]1(O)OC4)[C@@H]32)C(=O)CO5
REMARK SMILES IDX 1 1 2 2 3 3 4 4 5 5 6 6 7 7 8 8 9 9 10 10 11 11 12 12 13 13
REMARK SMILES IDX 14 14 15 15 16 16 17 17 19 18 20 19 21 20 22 21 23 22 24 23
REMARK SMILES IDX 25 24 18 25
REMARK H PARENT 18 26
ROOT
ATOM      1  C   UNL     1       4.294   0.397   0.000  1.00  0.00     0.030 C 
ATOM      2  C   UNL     1       2.800   0.264   0.000  1.00  0.00     0.126 C 
ATOM      3  C   UNL     1       3.287   1.683   0.000  1.00  0.00     0.318 C 
ATOM      4  O   UNL     1       4.721   2.123   0.000  1.00  0.00    -0.251 OA
ATOM      5  O   UNL     1       2.088   2.584   0.000  1.00  0.00    -0.461 OA
ATOM      6  C   UNL     1       0.860   1.722   0.000  1.00  0.00     0.182 C 
ATOM      7  C   UNL     1      -0.646   1.762   0.000  1.00  0.00     0.057 C 
ATOM      8  C   UNL     1      -1.548   0.562   0.000  1.00  0.00     0.063 C 
ATOM      9  C   UNL     1      -3.037   0.744   0.000  1.00  0.00     0.107 C 
ATOM     10  C   UNL     1      -3.938  -0.456   0.000  1.00  0.00     0.037 C 
ATOM     11  C   UNL     1      -3.350  -1.836   0.000  1.00  0.00     0.043 C 
ATOM     12  C   UNL     1      -1.861  -2.017   0.000  1.00  0.00     0.010 C 
ATOM     13  C   UNL     1      -0.960  -0.818   0.000  1.00  0.00     0.009 C 
ATOM     14  C   UNL     1       0.529  -0.999   0.000  1.00  0.00     0.005 C 
ATOM     15  C   UNL     1       1.258  -2.309   0.000  1.00  0.00     0.016 C 
ATOM     16  C   UNL     1       2.758  -2.334   0.000  1.00  0.00     0.067 C 
ATOM     17  C   UNL     1       3.529  -1.047   0.000  1.00  0.00     0.181 C 
ATOM     18  O   UNL     1       2.708  -0.983   0.000  1.00  0.00    -0.348 OA
ATOM     19  C   UNL     1       1.352  -0.961   0.000  1.00  0.00     0.171 C 
ATOM     20  C   UNL     1       1.300   0.288   0.000  1.00  0.00     0.061 C 
ATOM     21  C   UNL     1      -5.357   0.031   0.000  1.00  0.00     0.199 C 
ATOM     22  O   UNL     1      -6.584  -0.831   0.000  1.00  0.00    -0.291 OA
ATOM     23  C   UNL     1      -5.332   1.531   0.000  1.00  0.00     0.309 C 
ATOM     24  O   UNL     1      -3.898   1.971   0.000  1.00  0.00    -0.489 OA
ENDROOT
BRANCH  17  25
ATOM     25  O   UNL     1       5.029  -1.071   0.000  1.00  0.00    -0.365 OA
ATOM     26  H   UNL     1       0.000   0.000   0.000  1.00  0.00     0.214 HD
ENDBRANCH  17  25
TORSDOF 1
