REMARK SMILES COc1ccc2c(c1OC)OC[C@H]1c3cc(O)c(OC)c(OC)c3O[C@@H]21
REMARK SMILES IDX 3 1 4 2 5 3 6 4 7 5 8 6 11 7 12 8 13 9 14 10 15 11 16 12
REMARK SMILES IDX 18 13 21 14 24 15 25 16 26 17 2 18 1 19 9 20 10 21 22 22
REMARK SMILES IDX 23 23 19 24 20 25 17 26
REMARK H PARENT 17 27
ROOT
ATOM      1  C   UNL     1       4.761  -0.819   0.000  1.00  0.00     0.164 A 
ATOM      2  C   UNL     1       3.846  -2.007   0.000  1.00  0.00     0.051 A 
ATOM      3  C   UNL     1       2.359  -1.808   0.000  1.00  0.00     0.015 A 
ATOM      4  C   UNL     1       1.788  -0.421   0.000  1.00  0.00     0.039 A 
ATOM      5  C   UNL     1       2.704   0.767   0.000  1.00  0.00     0.172 A 
ATOM      6  C   UNL     1       4.191   0.568   0.000  1.00  0.00     0.203 A 
ATOM      7  O   UNL     1       2.133   2.154   0.000  1.00  0.00    -0.488 OA
ATOM      8  C   UNL     1       0.646   2.353   0.000  1.00  0.00     0.242 C 
ATOM      9  C   UNL     1      -0.270   1.165   0.000  1.00  0.00     0.107 C 
ATOM     10  C   UNL     1      -1.765   1.051   0.000  1.00  0.00     0.013 A 
ATOM     11  C   UNL     1      -2.851   2.086   0.000  1.00  0.00     0.058 A 
ATOM     12  C   UNL     1      -4.290   1.663   0.000  1.00  0.00     0.162 A 
ATOM     13  C   UNL     1      -4.644   0.205   0.000  1.00  0.00     0.207 A 
ATOM     14  C   UNL     1      -3.558  -0.830   0.000  1.00  0.00     0.207 A 
ATOM     15  C   UNL     1      -2.119  -0.407   0.000  1.00  0.00     0.170 A 
ATOM     16  O   UNL     1      -0.842  -1.194   0.000  1.00  0.00    -0.480 OA
ATOM     17  C   UNL     1       0.301  -0.222   0.000  1.00  0.00     0.218 C 
ENDROOT
BRANCH   1  18
ATOM     18  O   UNL     1       6.248  -1.018   0.000  1.00  0.00    -0.493 OA
ATOM     19  C   UNL     1       6.819  -2.405   0.000  1.00  0.00     0.278 C 
ENDBRANCH   1  18
BRANCH   6  20
ATOM     20  O   UNL     1       5.106   1.756   0.000  1.00  0.00    -0.490 OA
ATOM     21  C   UNL     1       6.593   1.557   0.000  1.00  0.00     0.278 C 
ENDBRANCH   6  20
BRANCH  14  22
ATOM     22  O   UNL     1      -3.911  -2.288   0.000  1.00  0.00    -0.490 OA
ATOM     23  C   UNL     1      -5.351  -2.710   0.000  1.00  0.00     0.278 C 
ENDBRANCH  14  22
BRANCH  13  24
ATOM     24  O   UNL     1      -6.083  -0.218   0.000  1.00  0.00    -0.490 OA
ATOM     25  C   UNL     1      -6.436  -1.675   0.000  1.00  0.00     0.278 C 
ENDBRANCH  13  24
BRANCH  12  26
ATOM     26  O   UNL     1      -5.376   2.698   0.000  1.00  0.00    -0.504 OA
ATOM     27  H   UNL     1       0.000   0.000   0.000  1.00  0.00     0.293 HD
ENDBRANCH  12  26
TORSDOF 5
