REMARK SMILES COc1ccc2c(c1)O[C@@H]1c3ccc(OC)c(OC)c3CO[C@H]1C2=O
REMARK SMILES IDX 3 1 4 2 5 3 6 4 24 5 25 6 23 7 22 8 21 9 20 10 17 11 14 12
REMARK SMILES IDX 13 13 12 14 11 15 10 16 9 17 7 18 8 19 2 20 1 21 18 22 19 23
REMARK SMILES IDX 15 24 16 25
REMARK H PARENT
ROOT
ATOM      1  C   UNL     1      -5.066  -1.160   0.000  1.00  0.00     0.122 A 
ATOM      2  C   UNL     1      -5.435   0.294   0.000  1.00  0.00     0.047 A 
ATOM      3  C   UNL     1      -4.360   1.340   0.000  1.00  0.00     0.019 A 
ATOM      4  C   UNL     1      -2.916   0.932   0.000  1.00  0.00     0.063 A 
ATOM      5  C   UNL     1      -1.841   1.978   0.000  1.00  0.00     0.199 C 
ATOM      6  O   UNL     1      -2.210   3.433   0.000  1.00  0.00    -0.291 OA
ATOM      7  C   UNL     1      -0.398   1.570   0.000  1.00  0.00     0.235 C 
ATOM      8  O   UNL     1       0.677   2.616   0.000  1.00  0.00    -0.361 OA
ATOM      9  C   UNL     1       2.121   2.208   0.000  1.00  0.00     0.201 C 
ATOM     10  C   UNL     1       2.489   0.754   0.000  1.00  0.00     0.031 A 
ATOM     11  C   UNL     1       3.933   0.346   0.000  1.00  0.00     0.166 A 
ATOM     12  C   UNL     1       4.301  -1.108   0.000  1.00  0.00     0.161 A 
ATOM     13  C   UNL     1       3.226  -2.154   0.000  1.00  0.00     0.051 A 
ATOM     14  C   UNL     1       1.782  -1.746   0.000  1.00  0.00     0.012 A 
ATOM     15  C   UNL     1       1.414  -0.292   0.000  1.00  0.00     0.005 A 
ATOM     16  C   UNL     1      -0.029   0.116   0.000  1.00  0.00     0.241 C 
ATOM     17  O   UNL     1      -1.105  -0.930   0.000  1.00  0.00    -0.482 OA
ATOM     18  C   UNL     1      -2.548  -0.522   0.000  1.00  0.00     0.135 A 
ATOM     19  C   UNL     1      -3.623  -1.568   0.000  1.00  0.00     0.093 A 
ENDROOT
BRANCH   1  20
ATOM     20  O   UNL     1      -6.142  -2.206   0.000  1.00  0.00    -0.497 OA
ATOM     21  C   UNL     1      -7.585  -1.798   0.000  1.00  0.00     0.278 C 
ENDBRANCH   1  20
BRANCH  11  22
ATOM     22  O   UNL     1       5.008   1.392   0.000  1.00  0.00    -0.492 OA
ATOM     23  C   UNL     1       6.451   0.984   0.000  1.00  0.00     0.278 C 
ENDBRANCH  11  22
BRANCH  12  24
ATOM     24  O   UNL     1       5.744  -1.516   0.000  1.00  0.00    -0.493 OA
ATOM     25  C   UNL     1       6.113  -2.970   0.000  1.00  0.00     0.278 C 
ENDBRANCH  12  24
TORSDOF 3
