REMARK SMILES C=Cc1cc(OC)c(OC)cc1OC
REMARK SMILES IDX 3 1 4 2 5 3 8 4 11 5 12 6 2 7 1 8 13 9 14 10 6 11 7 12 9 13
REMARK SMILES IDX 10 14
REMARK H PARENT
ROOT
ATOM      1  C   UNL     1       1.527  -0.660   0.000  1.00  0.00     0.020 A 
ATOM      2  C   UNL     1       0.375  -1.621   0.000  1.00  0.00     0.062 A 
ATOM      3  C   UNL     1      -1.033  -1.103   0.000  1.00  0.00     0.161 A 
ATOM      4  C   UNL     1      -1.289   0.375   0.000  1.00  0.00     0.164 A 
ATOM      5  C   UNL     1      -0.137   1.335   0.000  1.00  0.00     0.097 A 
ATOM      6  C   UNL     1       1.271   0.818   0.000  1.00  0.00     0.130 A 
ENDROOT
BRANCH   1   7
ATOM      7  C   UNL     1       2.935  -1.177   0.000  1.00  0.00     0.004 C 
ATOM      8  C   UNL     1       3.191  -2.655   0.000  1.00  0.00     0.009 C 
ENDBRANCH   1   7
BRANCH   6   9
ATOM      9  O   UNL     1       2.423   1.779   0.000  1.00  0.00    -0.496 OA
ATOM     10  C   UNL     1       2.167   3.257   0.000  1.00  0.00     0.278 C 
ENDBRANCH   6   9
BRANCH   3  11
ATOM     11  O   UNL     1      -2.185  -2.064   0.000  1.00  0.00    -0.493 OA
ATOM     12  C   UNL     1      -3.593  -1.546   0.000  1.00  0.00     0.278 C 
ENDBRANCH   3  11
BRANCH   4  13
ATOM     13  O   UNL     1      -2.697   0.892   0.000  1.00  0.00    -0.493 OA
ATOM     14  C   UNL     1      -2.953   2.370   0.000  1.00  0.00     0.278 C 
ENDBRANCH   4  13
TORSDOF 4
