REMARK SMILES COc1cc(C=CC(=O)O)cc(OC)c1OC
REMARK SMILES IDX 6 1 5 2 3 3 4 4 15 5 12 6 11 7 2 8 1 9 16 10 17 11 13 12
REMARK SMILES IDX 14 13 7 14 8 15 9 16 10 17
REMARK H PARENT 10 18
ROOT
ATOM      1  C   UNL     1      -2.288  -0.680   0.000  1.00  0.00     0.016 C 
ENDROOT
BRANCH   1   2
ATOM      2  C   UNL     1      -0.826  -0.346   0.000  1.00  0.00    -0.018 A 
ATOM      3  C   UNL     1       1.657  -1.111   0.000  1.00  0.00     0.165 A 
ATOM      4  C   UNL     1       0.195  -1.445   0.000  1.00  0.00     0.058 A 
ATOM      5  C   UNL     1       2.098   0.323   0.000  1.00  0.00     0.203 A 
ATOM      6  C   UNL     1       1.078   1.422   0.000  1.00  0.00     0.165 A 
ATOM      7  C   UNL     1      -0.385   1.088   0.000  1.00  0.00     0.058 A 
BRANCH   3   8
ATOM      8  O   UNL     1       2.678  -2.210   0.000  1.00  0.00    -0.493 OA
ATOM      9  C   UNL     1       2.236  -3.643   0.000  1.00  0.00     0.278 C 
ENDBRANCH   3   8
BRANCH   5  10
ATOM     10  O   UNL     1       3.561   0.657   0.000  1.00  0.00    -0.490 OA
ATOM     11  C   UNL     1       4.581  -0.442   0.000  1.00  0.00     0.278 C 
ENDBRANCH   5  10
BRANCH   6  12
ATOM     12  O   UNL     1       1.519   2.856   0.000  1.00  0.00    -0.493 OA
ATOM     13  C   UNL     1       2.982   3.190   0.000  1.00  0.00     0.278 C 
ENDBRANCH   6  12
ENDBRANCH   1   2
BRANCH   1  14
ATOM     14  C   UNL     1      -3.309   0.419   0.000  1.00  0.00     0.094 C 
BRANCH  14  15
ATOM     15  C   UNL     1      -4.771   0.085   0.000  1.00  0.00     0.328 C 
ATOM     16  O   UNL     1      -5.213  -1.349   0.000  1.00  0.00    -0.247 OA
BRANCH  15  17
ATOM     17  O   UNL     1      -5.792   1.184   0.000  1.00  0.00    -0.478 OA
ATOM     18  H   UNL     1       0.000   0.000   0.000  1.00  0.00     0.297 HD
ENDBRANCH  15  17
ENDBRANCH  14  15
ENDBRANCH   1  14
TORSDOF 7
