REMARK SMILES COc1cc([C@H]2c3cc(O)c(OC)cc3C[C@@H](CO)[C@@H]2CO)ccc1O
REMARK SMILES IDX 6 1 7 2 8 3 9 4 11 5 14 6 15 7 16 8 17 9 20 10 5 11 3 12
REMARK SMILES IDX 4 13 25 14 24 15 23 16 2 17 1 18 26 19 21 21 22 22 18 24
REMARK SMILES IDX 19 25 10 27 12 29 13 30
REMARK H PARENT 26 20 22 23 19 26 10 28
ROOT
ATOM      1  C   UNL     1      -0.198   0.352   0.000  1.00  0.00     0.055 C 
ATOM      2  C   UNL     1       1.189  -0.220   0.000  1.00  0.00    -0.033 A 
ATOM      3  C   UNL     1       1.387  -1.707   0.000  1.00  0.00     0.054 A 
ATOM      4  C   UNL     1       2.773  -2.279   0.000  1.00  0.00     0.157 A 
ATOM      5  C   UNL     1       3.962  -1.364   0.000  1.00  0.00     0.160 A 
ATOM      6  C   UNL     1       3.764   0.123   0.000  1.00  0.00     0.054 A 
ATOM      7  C   UNL     1       2.377   0.695   0.000  1.00  0.00    -0.040 A 
ATOM      8  C   UNL     1       2.179   2.182   0.000  1.00  0.00     0.042 C 
ATOM      9  C   UNL     1       0.792   2.754   0.000  1.00  0.00     0.025 C 
ATOM     10  C   UNL     1      -0.396   1.839   0.000  1.00  0.00     0.032 C 
ENDROOT
BRANCH   1  11
ATOM     11  C   UNL     1      -1.387  -0.563   0.000  1.00  0.00    -0.036 A 
ATOM     12  C   UNL     1      -3.962  -0.906   0.000  1.00  0.00     0.160 A 
ATOM     13  C   UNL     1      -2.773   0.009   0.000  1.00  0.00     0.054 A 
ATOM     14  C   UNL     1      -3.764  -2.393   0.000  1.00  0.00     0.157 A 
ATOM     15  C   UNL     1      -2.377  -2.965   0.000  1.00  0.00     0.050 A 
ATOM     16  C   UNL     1      -1.189  -2.050   0.000  1.00  0.00     0.008 A 
BRANCH  12  17
ATOM     17  O   UNL     1      -5.349  -0.334   0.000  1.00  0.00    -0.493 OA
ATOM     18  C   UNL     1      -5.547   1.153   0.000  1.00  0.00     0.278 C 
ENDBRANCH  12  17
BRANCH  14  19
ATOM     19  O   UNL     1      -4.952  -3.308   0.000  1.00  0.00    -0.504 OA
ATOM     20  H   UNL     1       0.000   0.000   0.000  1.00  0.00     0.293 HD
ENDBRANCH  14  19
ENDBRANCH   1  11
BRANCH  10  21
ATOM     21  C   UNL     1      -1.783   2.411   0.000  1.00  0.00     0.161 C 
BRANCH  21  22
ATOM     22  O   UNL     1      -1.981   3.897   0.000  1.00  0.00    -0.396 OA
ATOM     23  H   UNL     1       0.000   0.000   0.000  1.00  0.00     0.210 HD
ENDBRANCH  21  22
ENDBRANCH  10  21
BRANCH   9  24
ATOM     24  C   UNL     1       0.594   4.241   0.000  1.00  0.00     0.160 C 
BRANCH  24  25
ATOM     25  O   UNL     1       1.783   5.156   0.000  1.00  0.00    -0.396 OA
ATOM     26  H   UNL     1       0.000   0.000   0.000  1.00  0.00     0.210 HD
ENDBRANCH  24  25
ENDBRANCH   9  24
BRANCH   4  27
ATOM     27  O   UNL     1       2.971  -3.765   0.000  1.00  0.00    -0.504 OA
ATOM     28  H   UNL     1       0.000   0.000   0.000  1.00  0.00     0.293 HD
ENDBRANCH   4  27
BRANCH   5  29
ATOM     29  O   UNL     1       5.349  -1.936   0.000  1.00  0.00    -0.493 OA
ATOM     30  C   UNL     1       6.537  -1.021   0.000  1.00  0.00     0.278 C 
ENDBRANCH   5  29
TORSDOF 9
