REMARK SMILES COc1ccc(CCCc2ccc3c(c2)OCO3)c(O)c1
REMARK SMILES IDX 7 1 6 2 3 3 4 4 21 5 5 6 19 7 2 8 1 9 20 10 8 12 9 13 10 14
REMARK SMILES IDX 11 15 15 16 12 17 14 18 13 19 16 20 18 21 17 22
REMARK H PARENT 20 11
ROOT
ATOM      1  C   UNL     1       1.422   1.455   0.000  1.00  0.00     0.040 C 
ENDROOT
BRANCH   1   2
ATOM      2  C   UNL     1       2.752   0.761   0.000  1.00  0.00    -0.006 A 
ATOM      3  C   UNL     1       5.412  -0.627   0.000  1.00  0.00     0.122 A 
ATOM      4  C   UNL     1       4.146  -1.432   0.000  1.00  0.00     0.047 A 
ATOM      5  C   UNL     1       5.348   0.872   0.000  1.00  0.00     0.092 A 
ATOM      6  C   UNL     1       2.816  -0.738   0.000  1.00  0.00     0.011 A 
ATOM      7  C   UNL     1       4.018   1.566   0.000  1.00  0.00     0.122 A 
BRANCH   3   8
ATOM      8  O   UNL     1       6.742  -1.321   0.000  1.00  0.00    -0.497 OA
ATOM      9  C   UNL     1       6.806  -2.820   0.000  1.00  0.00     0.278 C 
ENDBRANCH   3   8
BRANCH   7  10
ATOM     10  O   UNL     1       3.954   3.064   0.000  1.00  0.00    -0.508 OA
ATOM     11  H   UNL     1       0.000   0.000   0.000  1.00  0.00     0.293 HD
ENDBRANCH   7  10
ENDBRANCH   1   2
BRANCH   1  12
ATOM     12  C   UNL     1       0.156   0.650   0.000  1.00  0.00     0.010 C 
BRANCH  12  13
ATOM     13  C   UNL     1      -1.173   1.344   0.000  1.00  0.00     0.036 C 
BRANCH  13  14
ATOM     14  C   UNL     1      -2.439   0.539   0.000  1.00  0.00    -0.044 A 
ATOM     15  C   UNL     1      -2.375  -0.959   0.000  1.00  0.00     0.008 A 
ATOM     16  C   UNL     1      -3.769   1.233   0.000  1.00  0.00     0.054 A 
ATOM     17  C   UNL     1      -3.641  -1.764   0.000  1.00  0.00     0.051 A 
ATOM     18  C   UNL     1      -5.035   0.429   0.000  1.00  0.00     0.166 A 
ATOM     19  C   UNL     1      -4.971  -1.070   0.000  1.00  0.00     0.165 A 
ATOM     20  O   UNL     1      -6.480   0.831   0.000  1.00  0.00    -0.454 OA
ATOM     21  O   UNL     1      -6.377  -1.594   0.000  1.00  0.00    -0.454 OA
ATOM     22  C   UNL     1      -7.309  -0.419   0.000  1.00  0.00     0.468 C 
ENDBRANCH  13  14
ENDBRANCH  12  13
ENDBRANCH   1  12
TORSDOF 6
