REMARK SMILES CNC(=O)C=Cc1ccccc1
REMARK SMILES IDX 5 1 3 2 2 3 1 4 4 6 6 7 7 8 8 9 12 10 9 11 11 12 10 13
REMARK H PARENT 2 5
ROOT
ATOM      1  C   UNL     1      -1.260   0.315   0.000  1.00  0.00     0.072 C 
ENDROOT
BRANCH   1   2
ATOM      2  C   UNL     1      -2.702  -0.098   0.000  1.00  0.00     0.243 C 
ATOM      3  N   UNL     1      -3.781   0.945   0.000  1.00  0.00    -0.356 N 
ATOM      4  C   UNL     1      -5.223   0.532   0.000  1.00  0.00     0.143 C 
ATOM      5  H   UNL     1       0.000   0.000   0.000  1.00  0.00     0.163 HD
ATOM      6  O   UNL     1      -3.066  -1.553   0.000  1.00  0.00    -0.270 OA
ENDBRANCH   1   2
BRANCH   1   7
ATOM      7  C   UNL     1      -0.182  -0.728   0.000  1.00  0.00     0.014 C 
BRANCH   7   8
ATOM      8  C   UNL     1       1.260  -0.315   0.000  1.00  0.00    -0.025 A 
ATOM      9  C   UNL     1       1.624   1.140   0.000  1.00  0.00     0.008 A 
ATOM     10  C   UNL     1       2.339  -1.357   0.000  1.00  0.00     0.008 A 
ATOM     11  C   UNL     1       3.066   1.553   0.000  1.00  0.00     0.001 A 
ATOM     12  C   UNL     1       3.781  -0.945   0.000  1.00  0.00     0.001 A 
ATOM     13  C   UNL     1       4.144   0.511   0.000  1.00  0.00     0.000 A 
ENDBRANCH   7   8
ENDBRANCH   1   7
TORSDOF 3
