REMARK SMILES COc1c(C(C)C)cc2c(c1OC)[C@@]13CCCC(C)(C)C1C[C@@H]2OC3=O
REMARK SMILES IDX 3 1 4 2 8 3 9 4 10 5 11 6 14 7 15 8 16 9 17 10 18 11 19 12
REMARK SMILES IDX 20 13 21 14 22 15 23 16 24 17 25 18 26 19 2 20 1 21 5 22
REMARK SMILES IDX 6 23 7 24 12 25 13 26
REMARK H PARENT
ROOT
ATOM      1  C   UNL     1      -2.605  -0.537   0.000  1.00  0.00     0.164 A 
ATOM      2  C   UNL     1      -2.917   0.930   0.000  1.00  0.00     0.001 A 
ATOM      3  C   UNL     1      -1.802   1.934   0.000  1.00  0.00     0.016 A 
ATOM      4  C   UNL     1      -0.375   1.470   0.000  1.00  0.00     0.001 A 
ATOM      5  C   UNL     1      -0.064   0.003   0.000  1.00  0.00     0.023 A 
ATOM      6  C   UNL     1      -1.178  -1.001   0.000  1.00  0.00     0.165 A 
ATOM      7  C   UNL     1       1.363  -0.461   0.000  1.00  0.00     0.100 C 
ATOM      8  C   UNL     1       1.675  -1.928   0.000  1.00  0.00     0.024 C 
ATOM      9  C   UNL     1       3.101  -2.392   0.000  1.00  0.00     0.002 C 
ATOM     10  C   UNL     1       4.216  -1.388   0.000  1.00  0.00     0.007 C 
ATOM     11  C   UNL     1       3.904   0.079   0.000  1.00  0.00    -0.031 C 
ATOM     12  C   UNL     1       4.113   1.565   0.000  1.00  0.00     0.011 C 
ATOM     13  C   UNL     1       5.403   0.132   0.000  1.00  0.00     0.011 C 
ATOM     14  C   UNL     1       2.478   0.543   0.000  1.00  0.00     0.021 C 
ATOM     15  C   UNL     1       2.166   2.010   0.000  1.00  0.00     0.056 C 
ATOM     16  C   UNL     1       0.739   2.474   0.000  1.00  0.00     0.207 C 
ATOM     17  O   UNL     1       0.960   1.680   0.000  1.00  0.00    -0.457 OA
ATOM     18  C   UNL     1       1.242   0.354   0.000  1.00  0.00     0.317 C 
ATOM     19  O   UNL     1       2.013   0.378   0.000  1.00  0.00    -0.251 OA
ENDROOT
BRANCH   1  20
ATOM     20  O   UNL     1      -3.720  -1.541   0.000  1.00  0.00    -0.493 OA
ATOM     21  C   UNL     1      -3.408  -3.008   0.000  1.00  0.00     0.278 C 
ENDBRANCH   1  20
BRANCH   2  22
ATOM     22  C   UNL     1      -4.343   1.394   0.000  1.00  0.00     0.017 C 
ATOM     23  C   UNL     1      -4.655   2.861   0.000  1.00  0.00     0.012 C 
ATOM     24  C   UNL     1      -5.458   0.390   0.000  1.00  0.00     0.012 C 
ENDBRANCH   2  22
BRANCH   6  25
ATOM     25  O   UNL     1      -0.867  -2.468   0.000  1.00  0.00    -0.493 OA
ATOM     26  C   UNL     1      -1.981  -3.472   0.000  1.00  0.00     0.278 C 
ENDBRANCH   6  25
TORSDOF 3
