REMARK SMILES C[C@@H]1O[C@@H](OC[C@H]2O[C@@H](Oc3c(-c4ccc(O)c(O)c4)oc4cc(O)c(O)c(O)c4c3=O)[C@H](O)[C@@H](O)[C@@H]2O)[C@H](O)[C@H](O)[C@H]1O
REMARK SMILES IDX 7 1 8 2 9 3 33 4 35 5 37 6 6 7 5 8 4 9 2 10 3 11 43 12 41 13
REMARK SMILES IDX 39 14 1 15 44 16 42 18 40 20 38 22 10 24 11 25 12 26 31 27
REMARK SMILES IDX 21 28 30 29 22 30 28 31 23 32 26 33 24 34 32 35 13 36 14 37
REMARK SMILES IDX 20 38 15 39 18 40 16 41 19 42 17 44 29 46 27 48 25 50 36 52
REMARK SMILES IDX 34 54
REMARK H PARENT 44 17 42 19 40 21 38 23 19 43 17 45 29 47 27 49 25 51 36 53
REMARK H PARENT 34 55
ROOT
ATOM      1  C   UNL     1       1.490   2.025   0.000  1.00  0.00     0.180 C 
ATOM      2  O   UNL     1       0.155   1.341   0.000  1.00  0.00    -0.332 OA
ATOM      3  C   UNL     1      -1.105   2.154   0.000  1.00  0.00     0.339 C 
ATOM      4  C   UNL     1      -1.031   3.652   0.000  1.00  0.00     0.214 C 
ATOM      5  C   UNL     1       0.304   4.337   0.000  1.00  0.00     0.180 C 
ATOM      6  C   UNL     1       1.564   3.523   0.000  1.00  0.00     0.177 C 
ENDROOT
BRANCH   1   7
ATOM      7  C   UNL     1       2.750   1.212   0.000  1.00  0.00     0.198 C 
BRANCH   7   8
ATOM      8  O   UNL     1       4.085   1.897   0.000  1.00  0.00    -0.347 OA
BRANCH   8   9
ATOM      9  C   UNL     1       5.345   1.083   0.000  1.00  0.00     0.281 C 
ATOM     10  C   UNL     1       7.940   0.955   0.000  1.00  0.00     0.150 C 
ATOM     11  O   UNL     1       6.679   1.768   0.000  1.00  0.00    -0.344 OA
ATOM     12  C   UNL     1       7.865  -0.544   0.000  1.00  0.00     0.174 C 
ATOM     13  C   UNL     1       6.531  -1.228   0.000  1.00  0.00     0.179 C 
ATOM     14  C   UNL     1       5.271  -0.415   0.000  1.00  0.00     0.202 C 
ATOM     15  C   UNL     1       9.274   1.639   0.000  1.00  0.00     0.041 C 
BRANCH  12  16
ATOM     16  O   UNL     1       9.126  -1.357   0.000  1.00  0.00    -0.388 OA
ATOM     17  H   UNL     1       0.000   0.000   0.000  1.00  0.00     0.211 HD
ENDBRANCH  12  16
BRANCH  13  18
ATOM     18  O   UNL     1       6.457  -2.727   0.000  1.00  0.00    -0.387 OA
ATOM     19  H   UNL     1       0.000   0.000   0.000  1.00  0.00     0.211 HD
ENDBRANCH  13  18
BRANCH  14  20
ATOM     20  O   UNL     1       3.936  -1.100   0.000  1.00  0.00    -0.385 OA
ATOM     21  H   UNL     1       0.000   0.000   0.000  1.00  0.00     0.211 HD
ENDBRANCH  14  20
ENDBRANCH   8   9
ENDBRANCH   7   8
ENDBRANCH   1   7
BRANCH   6  22
ATOM     22  O   UNL     1       2.899   4.208   0.000  1.00  0.00    -0.387 OA
ATOM     23  H   UNL     1       0.000   0.000   0.000  1.00  0.00     0.211 HD
ENDBRANCH   6  22
BRANCH   3  24
ATOM     24  O   UNL     1      -2.440   1.469   0.000  1.00  0.00    -0.454 OA
BRANCH  24  25
ATOM     25  C   UNL     1      -2.514  -0.029   0.000  1.00  0.00     0.214 A 
ATOM     26  C   UNL     1      -3.849  -0.714   0.000  1.00  0.00     0.180 A 
ATOM     27  C   UNL     1      -1.254  -0.842   0.000  1.00  0.00     0.239 A 
ATOM     28  O   UNL     1      -3.923  -2.212   0.000  1.00  0.00    -0.452 OA
ATOM     29  C   UNL     1      -1.328  -2.341   0.000  1.00  0.00     0.115 A 
ATOM     30  C   UNL     1      -2.663  -3.025   0.000  1.00  0.00     0.146 A 
ATOM     31  C   UNL     1      -0.068  -3.154   0.000  1.00  0.00     0.176 A 
ATOM     32  C   UNL     1      -2.737  -4.523   0.000  1.00  0.00     0.098 A 
ATOM     33  C   UNL     1      -0.142  -4.652   0.000  1.00  0.00     0.201 A 
ATOM     34  C   UNL     1      -1.477  -5.337   0.000  1.00  0.00     0.165 A 
ATOM     35  O   UNL     1       0.081  -0.158   0.000  1.00  0.00    -0.285 OA
BRANCH  26  36
ATOM     36  C   UNL     1      -5.109   0.100   0.000  1.00  0.00     0.025 A 
ATOM     37  C   UNL     1      -5.035   1.598   0.000  1.00  0.00     0.016 A 
ATOM     38  C   UNL     1      -6.444  -0.585   0.000  1.00  0.00     0.062 A 
ATOM     39  C   UNL     1      -6.295   2.411   0.000  1.00  0.00     0.051 A 
ATOM     40  C   UNL     1      -7.704   0.228   0.000  1.00  0.00     0.158 A 
ATOM     41  C   UNL     1      -7.630   1.727   0.000  1.00  0.00     0.157 A 
BRANCH  40  42
ATOM     42  O   UNL     1      -9.038  -0.456   0.000  1.00  0.00    -0.504 OA
ATOM     43  H   UNL     1       0.000   0.000   0.000  1.00  0.00     0.293 HD
ENDBRANCH  40  42
BRANCH  41  44
ATOM     44  O   UNL     1      -8.890   2.540   0.000  1.00  0.00    -0.504 OA
ATOM     45  H   UNL     1       0.000   0.000   0.000  1.00  0.00     0.293 HD
ENDBRANCH  41  44
ENDBRANCH  26  36
BRANCH  31  46
ATOM     46  O   UNL     1       1.267  -2.469   0.000  1.00  0.00    -0.504 OA
ATOM     47  H   UNL     1       0.000   0.000   0.000  1.00  0.00     0.293 HD
ENDBRANCH  31  46
BRANCH  33  48
ATOM     48  O   UNL     1       1.118  -5.465   0.000  1.00  0.00    -0.502 OA
ATOM     49  H   UNL     1       0.000   0.000   0.000  1.00  0.00     0.293 HD
ENDBRANCH  33  48
BRANCH  34  50
ATOM     50  O   UNL     1      -1.551  -6.835   0.000  1.00  0.00    -0.504 OA
ATOM     51  H   UNL     1       0.000   0.000   0.000  1.00  0.00     0.293 HD
ENDBRANCH  34  50
ENDBRANCH  24  25
ENDBRANCH   3  24
BRANCH   5  52
ATOM     52  O   UNL     1       0.378   5.835   0.000  1.00  0.00    -0.387 OA
ATOM     53  H   UNL     1       0.000   0.000   0.000  1.00  0.00     0.211 HD
ENDBRANCH   5  52
BRANCH   4  54
ATOM     54  O   UNL     1      -2.291   4.465   0.000  1.00  0.00    -0.384 OA
ATOM     55  H   UNL     1       0.000   0.000   0.000  1.00  0.00     0.211 HD
ENDBRANCH   4  54
TORSDOF 17
