REMARK SMILES COc1cc(-c2oc3cc(OC)c(OC(C)=O)c(OC)c3c(=O)c2OC)cc(OC(C)=O)c1OC
REMARK SMILES IDX 6 1 24 2 22 3 23 4 21 5 18 6 13 7 10 8 9 9 8 10 7 11 5 12
REMARK SMILES IDX 3 13 4 14 33 15 28 16 27 17 2 18 1 19 34 20 35 21 29 22
REMARK SMILES IDX 30 23 31 24 32 25 25 26 26 27 19 28 20 29 11 30 12 31 14 32
REMARK SMILES IDX 15 33 16 34 17 35
REMARK H PARENT
ROOT
ATOM      1  C   UNL     1      -0.544  -0.253   0.000  1.00  0.00     0.180 A 
ATOM      2  C   UNL     1      -0.112  -1.690   0.000  1.00  0.00     0.210 A 
ATOM      3  C   UNL     1       1.348  -2.034   0.000  1.00  0.00     0.239 A 
ATOM      4  O   UNL     1       1.780  -3.470   0.000  1.00  0.00    -0.285 OA
ATOM      5  C   UNL     1       2.376  -0.941   0.000  1.00  0.00     0.115 A 
ATOM      6  C   UNL     1       3.836  -1.286   0.000  1.00  0.00     0.180 A 
ATOM      7  C   UNL     1       4.864  -0.193   0.000  1.00  0.00     0.215 A 
ATOM      8  C   UNL     1       4.432   1.243   0.000  1.00  0.00     0.169 A 
ATOM      9  C   UNL     1       2.972   1.587   0.000  1.00  0.00     0.098 A 
ATOM     10  C   UNL     1       1.944   0.495   0.000  1.00  0.00     0.146 A 
ATOM     11  O   UNL     1       0.484   0.839   0.000  1.00  0.00    -0.452 OA
ENDROOT
BRANCH   1  12
ATOM     12  C   UNL     1      -2.004   0.091   0.000  1.00  0.00     0.029 A 
ATOM     13  C   UNL     1      -3.896   1.872   0.000  1.00  0.00     0.165 A 
ATOM     14  C   UNL     1      -2.436   1.528   0.000  1.00  0.00     0.062 A 
ATOM     15  C   UNL     1      -4.924   0.779   0.000  1.00  0.00     0.204 A 
ATOM     16  C   UNL     1      -4.492  -0.657   0.000  1.00  0.00     0.177 A 
ATOM     17  C   UNL     1      -3.032  -1.001   0.000  1.00  0.00     0.063 A 
BRANCH  13  18
ATOM     18  O   UNL     1      -4.328   3.308   0.000  1.00  0.00    -0.493 OA
ATOM     19  C   UNL     1      -3.300   4.400   0.000  1.00  0.00     0.278 C 
ENDBRANCH  13  18
BRANCH  15  20
ATOM     20  O   UNL     1      -6.384   1.123   0.000  1.00  0.00    -0.490 OA
ATOM     21  C   UNL     1      -6.816   2.560   0.000  1.00  0.00     0.278 C 
ENDBRANCH  15  20
BRANCH  16  22
ATOM     22  O   UNL     1      -5.520  -1.749   0.000  1.00  0.00    -0.423 OA
BRANCH  22  23
ATOM     23  C   UNL     1      -6.980  -1.405   0.000  1.00  0.00     0.308 C 
ATOM     24  C   UNL     1      -8.008  -2.498   0.000  1.00  0.00     0.139 C 
ATOM     25  O   UNL     1      -7.412   0.031   0.000  1.00  0.00    -0.252 OA
ENDBRANCH  22  23
ENDBRANCH  16  22
ENDBRANCH   1  12
BRANCH   2  26
ATOM     26  O   UNL     1      -1.140  -2.782   0.000  1.00  0.00    -0.490 OA
ATOM     27  C   UNL     1      -2.600  -2.438   0.000  1.00  0.00     0.278 C 
ENDBRANCH   2  26
BRANCH   6  28
ATOM     28  O   UNL     1       4.268  -2.722   0.000  1.00  0.00    -0.492 OA
ATOM     29  C   UNL     1       5.728  -3.066   0.000  1.00  0.00     0.278 C 
ENDBRANCH   6  28
BRANCH   8  30
ATOM     30  O   UNL     1       5.460   2.336   0.000  1.00  0.00    -0.493 OA
ATOM     31  C   UNL     1       5.028   3.772   0.000  1.00  0.00     0.278 C 
ENDBRANCH   8  30
BRANCH   7  32
ATOM     32  O   UNL     1       6.324  -0.537   0.000  1.00  0.00    -0.419 OA
BRANCH  32  33
ATOM     33  C   UNL     1       7.352   0.555   0.000  1.00  0.00     0.308 C 
ATOM     34  C   UNL     1       8.812   0.211   0.000  1.00  0.00     0.139 C 
ATOM     35  O   UNL     1       6.920   1.991   0.000  1.00  0.00    -0.252 OA
ENDBRANCH  32  33
ENDBRANCH   7  32
TORSDOF 10
