REMARK SMILES COC(=O)C1=CO[C@@H](O[C@@H]2O[C@H](CO)[C@@H](O)[C@H](O)[C@H]2O)[C@@H]2[C@H](C)OC(=O)C[C@H]12
REMARK SMILES IDX 9 1 8 2 5 3 6 4 28 5 7 6 27 7 21 8 25 9 22 10 24 11 26 12
REMARK SMILES IDX 23 13 3 14 4 15 2 16 1 17 10 18 11 19 19 20 12 21 17 22
REMARK SMILES IDX 15 23 20 24 13 26 14 27 18 29 16 31
REMARK H PARENT 20 25 14 28 18 30 16 32
ROOT
ATOM      1  O   UNL     1      -1.050   1.167   0.000  1.00  0.00    -0.310 OA
ENDROOT
BRANCH   1   2
ATOM      2  C   UNL     1       0.238   0.398   0.000  1.00  0.00     0.316 C 
ATOM      3  C   UNL     1       2.813  -1.140   0.000  1.00  0.00     0.076 C 
ATOM      4  C   UNL     1       1.503  -1.871   0.000  1.00  0.00     0.202 C 
ATOM      5  C   UNL     1       2.836   0.360   0.000  1.00  0.00     0.054 C 
ATOM      6  O   UNL     1       0.216  -1.101   0.000  1.00  0.00    -0.471 OA
ATOM      7  C   UNL     1       4.146   1.090   0.000  1.00  0.00     0.132 C 
ATOM      8  C   UNL     1       1.548   1.129   0.000  1.00  0.00     0.107 C 
ATOM      9  C   UNL     1       4.168   2.590   0.000  1.00  0.00     0.306 C 
ATOM     10  C   UNL     1       1.570   2.629   0.000  1.00  0.00     0.183 C 
ATOM     11  O   UNL     1       2.880   3.359   0.000  1.00  0.00    -0.462 OA
ATOM     12  O   UNL     1       5.478   3.321   0.000  1.00  0.00    -0.252 OA
ATOM     13  C   UNL     1       0.282   3.398   0.000  1.00  0.00     0.053 C 
BRANCH   3  14
ATOM     14  C   UNL     1       4.101  -1.909   0.000  1.00  0.00     0.337 C 
ATOM     15  O   UNL     1       5.411  -1.179   0.000  1.00  0.00    -0.246 OA
BRANCH  14  16
ATOM     16  O   UNL     1       4.079  -3.409   0.000  1.00  0.00    -0.466 OA
ATOM     17  C   UNL     1       5.367  -4.178   0.000  1.00  0.00     0.282 C 
ENDBRANCH  14  16
ENDBRANCH   3  14
ENDBRANCH   1   2
BRANCH   1  18
ATOM     18  C   UNL     1      -2.360   0.437   0.000  1.00  0.00     0.286 C 
ATOM     19  O   UNL     1      -3.648   1.206   0.000  1.00  0.00    -0.341 OA
ATOM     20  C   UNL     1      -2.382  -1.063   0.000  1.00  0.00     0.202 C 
ATOM     21  C   UNL     1      -4.958   0.475   0.000  1.00  0.00     0.178 C 
ATOM     22  C   UNL     1      -3.692  -1.794   0.000  1.00  0.00     0.179 C 
ATOM     23  C   UNL     1      -4.980  -1.024   0.000  1.00  0.00     0.177 C 
BRANCH  20  24
ATOM     24  O   UNL     1      -1.094  -1.832   0.000  1.00  0.00    -0.385 OA
ATOM     25  H   UNL     1       0.000   0.000   0.000  1.00  0.00     0.211 HD
ENDBRANCH  20  24
BRANCH  21  26
ATOM     26  C   UNL     1      -6.245   1.245   0.000  1.00  0.00     0.191 C 
BRANCH  26  27
ATOM     27  O   UNL     1      -6.223   2.745   0.000  1.00  0.00    -0.394 OA
ATOM     28  H   UNL     1       0.000   0.000   0.000  1.00  0.00     0.210 HD
ENDBRANCH  26  27
ENDBRANCH  21  26
BRANCH  22  29
ATOM     29  O   UNL     1      -3.715  -3.293   0.000  1.00  0.00    -0.387 OA
ATOM     30  H   UNL     1       0.000   0.000   0.000  1.00  0.00     0.211 HD
ENDBRANCH  22  29
BRANCH  23  31
ATOM     31  O   UNL     1      -6.290  -1.755   0.000  1.00  0.00    -0.387 OA
ATOM     32  H   UNL     1       0.000   0.000   0.000  1.00  0.00     0.211 HD
ENDBRANCH  23  31
ENDBRANCH   1  18
TORSDOF 9
