REMARK SMILES COc1cc(OC)c(C(=O)c2c(OC)cc(OC)c(C)c2O)c(O)c1C
REMARK SMILES IDX 9 1 10 2 8 3 3 4 4 5 25 6 5 7 23 8 26 9 2 10 1 11 6 12 7 13
REMARK SMILES IDX 24 14 11 16 12 17 21 18 15 19 19 20 16 21 20 22 13 23 14 24
REMARK SMILES IDX 22 25 17 27 18 28
REMARK H PARENT 24 15 22 26
ROOT
ATOM      1  C   UNL     1       0.000   1.315   0.000  1.00  0.00     0.208 C 
ATOM      2  O   UNL     1       0.000   2.815   0.000  1.00  0.00    -0.288 OA
ENDROOT
BRANCH   1   3
ATOM      3  C   UNL     1      -1.299   0.565   0.000  1.00  0.00     0.107 A 
ATOM      4  C   UNL     1      -3.897  -0.935   0.000  1.00  0.00     0.129 A 
ATOM      5  C   UNL     1      -3.897   0.565   0.000  1.00  0.00     0.094 A 
ATOM      6  C   UNL     1      -2.598  -1.685   0.000  1.00  0.00     0.034 A 
ATOM      7  C   UNL     1      -2.598   1.315   0.000  1.00  0.00     0.137 A 
ATOM      8  C   UNL     1      -1.299  -0.935   0.000  1.00  0.00     0.137 A 
ATOM      9  C   UNL     1      -2.598  -3.185   0.000  1.00  0.00     0.052 C 
BRANCH   4  10
ATOM     10  O   UNL     1      -5.196  -1.685   0.000  1.00  0.00    -0.496 OA
ATOM     11  C   UNL     1      -6.495  -0.935   0.000  1.00  0.00     0.278 C 
ENDBRANCH   4  10
BRANCH   7  12
ATOM     12  O   UNL     1      -2.598   2.815   0.000  1.00  0.00    -0.496 OA
ATOM     13  C   UNL     1      -3.897   3.565   0.000  1.00  0.00     0.278 C 
ENDBRANCH   7  12
BRANCH   8  14
ATOM     14  O   UNL     1      -0.513  -1.528   0.000  1.00  0.00    -0.507 OA
ATOM     15  H   UNL     1       0.000   0.000   0.000  1.00  0.00     0.293 HD
ENDBRANCH   8  14
ENDBRANCH   1   3
BRANCH   1  16
ATOM     16  C   UNL     1       1.299   0.565   0.000  1.00  0.00     0.107 A 
ATOM     17  C   UNL     1       2.598   1.315   0.000  1.00  0.00     0.137 A 
ATOM     18  C   UNL     1       1.299  -0.935   0.000  1.00  0.00     0.137 A 
ATOM     19  C   UNL     1       3.897   0.565   0.000  1.00  0.00     0.094 A 
ATOM     20  C   UNL     1       2.598  -1.685   0.000  1.00  0.00     0.034 A 
ATOM     21  C   UNL     1       3.897  -0.935   0.000  1.00  0.00     0.129 A 
ATOM     22  C   UNL     1       2.598  -3.185   0.000  1.00  0.00     0.052 C 
BRANCH  17  23
ATOM     23  O   UNL     1       2.598   2.815   0.000  1.00  0.00    -0.496 OA
ATOM     24  C   UNL     1       3.897   3.565   0.000  1.00  0.00     0.278 C 
ENDBRANCH  17  23
BRANCH  18  25
ATOM     25  O   UNL     1       0.513  -1.528   0.000  1.00  0.00    -0.507 OA
ATOM     26  H   UNL     1       0.000   0.000   0.000  1.00  0.00     0.293 HD
ENDBRANCH  18  25
BRANCH  21  27
ATOM     27  O   UNL     1       5.196  -1.685   0.000  1.00  0.00    -0.496 OA
ATOM     28  C   UNL     1       6.495  -0.935   0.000  1.00  0.00     0.278 C 
ENDBRANCH  21  27
ENDBRANCH   1  16
TORSDOF 8
