REMARK SMILES CC1(C)CC[C@H]([C@](C)(O)[C@H]2CC[C@@]3(O)C4=CC(=O)C5C[C@@H](O)[C@@H](O)C[C@]5(C)C4CC[C@]23C)O1
REMARK SMILES IDX 10 1 11 2 12 3 13 4 15 5 16 6 17 7 18 8 19 9 20 10 21 11
REMARK SMILES IDX 23 12 25 13 26 14 27 15 28 16 29 17 30 18 31 19 32 20 7 21
REMARK SMILES IDX 8 22 6 23 2 24 4 25 33 26 5 27 1 28 3 29 9 30 14 32 24 34
REMARK SMILES IDX 22 36
REMARK H PARENT 9 31 14 33 24 35 22 37
ROOT
ATOM      1  C   UNL     1       3.002  -1.581   0.000  1.00  0.00     0.032 C 
ATOM      2  C   UNL     1       2.773  -3.063   0.000  1.00  0.00     0.010 C 
ATOM      3  C   UNL     1       1.292  -3.303   0.000  1.00  0.00     0.041 C 
ATOM      4  C   UNL     1       0.607  -1.968   0.000  1.00  0.00     0.092 C 
ATOM      5  C   UNL     1      -0.844  -1.585   0.000  1.00  0.00    -0.031 C 
ATOM      6  C   UNL     1      -1.901  -2.650   0.000  1.00  0.00     0.050 C 
ATOM      7  C   UNL     1      -3.351  -2.266   0.000  1.00  0.00     0.159 C 
ATOM      8  O   UNL     1      -4.408  -3.330   0.000  1.00  0.00    -0.295 OA
ATOM      9  C   UNL     1      -3.744  -0.819   0.000  1.00  0.00     0.070 C 
ATOM     10  C   UNL     1      -5.194  -0.435   0.000  1.00  0.00     0.047 C 
ATOM     11  C   UNL     1      -5.588   1.012   0.000  1.00  0.00     0.143 C 
ATOM     12  C   UNL     1      -4.530   2.076   0.000  1.00  0.00     0.143 C 
ATOM     13  C   UNL     1      -3.080   1.693   0.000  1.00  0.00     0.042 C 
ATOM     14  C   UNL     1      -2.687   0.246   0.000  1.00  0.00    -0.013 C 
ATOM     15  C   UNL     1      -1.630   1.310   0.000  1.00  0.00     0.013 C 
ATOM     16  C   UNL     1      -1.237  -0.138   0.000  1.00  0.00     0.025 C 
ATOM     17  C   UNL     1      -0.180   0.927   0.000  1.00  0.00     0.009 C 
ATOM     18  C   UNL     1       1.270   0.543   0.000  1.00  0.00     0.011 C 
ATOM     19  C   UNL     1       1.663  -0.904   0.000  1.00  0.00     0.006 C 
ATOM     20  C   UNL     1       2.826   0.044   0.000  1.00  0.00     0.015 C 
ENDROOT
BRANCH   1  21
ATOM     21  C   UNL     1       4.337  -0.895   0.000  1.00  0.00     0.091 C 
ATOM     22  C   UNL     1       5.671  -0.209   0.000  1.00  0.00     0.045 C 
BRANCH  21  23
ATOM     23  C   UNL     1       3.651   0.439   0.000  1.00  0.00     0.150 C 
ATOM     24  C   UNL     1       3.263   2.835   0.000  1.00  0.00     0.063 C 
ATOM     25  C   UNL     1       1.929   2.149   0.000  1.00  0.00     0.038 C 
ATOM     26  O   UNL     1       4.327   1.778   0.000  1.00  0.00    -0.369 OA
ATOM     27  C   UNL     1       2.169   0.669   0.000  1.00  0.00     0.038 C 
ATOM     28  C   UNL     1       2.442   4.090   0.000  1.00  0.00     0.042 C 
ATOM     29  C   UNL     1       4.426   3.783   0.000  1.00  0.00     0.042 C 
ENDBRANCH  21  23
BRANCH  21  30
ATOM     30  O   UNL     1       5.022  -2.229   0.000  1.00  0.00    -0.387 OA
ATOM     31  H   UNL     1       0.000   0.000   0.000  1.00  0.00     0.211 HD
ENDBRANCH  21  30
ENDBRANCH   1  21
BRANCH   4  32
ATOM     32  O   UNL     1      -0.334  -3.137   0.000  1.00  0.00    -0.385 OA
ATOM     33  H   UNL     1       0.000   0.000   0.000  1.00  0.00     0.211 HD
ENDBRANCH   4  32
BRANCH  12  34
ATOM     34  O   UNL     1      -4.924   3.524   0.000  1.00  0.00    -0.390 OA
ATOM     35  H   UNL     1       0.000   0.000   0.000  1.00  0.00     0.211 HD
ENDBRANCH  12  34
BRANCH  11  36
ATOM     36  O   UNL     1      -7.038   1.395   0.000  1.00  0.00    -0.390 OA
ATOM     37  H   UNL     1       0.000   0.000   0.000  1.00  0.00     0.211 HD
ENDBRANCH  11  36
TORSDOF 6
