REMARK SMILES O=C1C=CC[C@H](/C=C/C[C@H](O)C[C@@H](O)C[C@@H](O)/C=C/c2ccccc2)O1
REMARK SMILES IDX 12 1 10 2 9 3 8 4 7 5 6 6 2 7 3 8 26 9 4 10 5 11 1 12 11 13
REMARK SMILES IDX 13 15 14 16 15 18 16 19 17 20 18 22 19 23 20 24 21 25 25 26
REMARK SMILES IDX 22 27 24 28 23 29
REMARK H PARENT 11 14 14 17 17 21
ROOT
ATOM      1  C   UNL     1      -0.298   0.796   0.000  1.00  0.00     0.064 C 
ENDROOT
BRANCH   1   2
ATOM      2  C   UNL     1      -1.684   0.223   0.000  1.00  0.00     0.120 C 
BRANCH   2   3
ATOM      3  C   UNL     1      -2.873   1.138   0.000  1.00  0.00     0.059 C 
BRANCH   3   4
ATOM      4  C   UNL     1      -4.260   0.565   0.000  1.00  0.00    -0.025 C 
BRANCH   4   5
ATOM      5  C   UNL     1      -5.449   1.480   0.000  1.00  0.00     0.013 C 
BRANCH   5   6
ATOM      6  C   UNL     1      -6.835   0.907   0.000  1.00  0.00     0.203 C 
ATOM      7  C   UNL     1      -8.419  -1.153   0.000  1.00  0.00     0.331 C 
ATOM      8  C   UNL     1      -9.608  -0.238   0.000  1.00  0.00     0.089 C 
ATOM      9  O   UNL     1      -7.032  -0.580   0.000  1.00  0.00    -0.455 OA
ATOM     10  C   UNL     1      -9.411   1.249   0.000  1.00  0.00    -0.015 C 
ATOM     11  C   UNL     1      -8.024   1.821   0.000  1.00  0.00     0.077 C 
ATOM     12  O   UNL     1      -8.616  -2.640   0.000  1.00  0.00    -0.247 OA
ENDBRANCH   5   6
ENDBRANCH   4   5
ENDBRANCH   3   4
ENDBRANCH   2   3
BRANCH   2  13
ATOM     13  O   UNL     1      -1.881  -1.264   0.000  1.00  0.00    -0.393 OA
ATOM     14  H   UNL     1       0.000   0.000   0.000  1.00  0.00     0.210 HD
ENDBRANCH   2  13
ENDBRANCH   1   2
BRANCH   1  15
ATOM     15  C   UNL     1       0.891  -0.118   0.000  1.00  0.00     0.119 C 
BRANCH  15  16
ATOM     16  O   UNL     1       0.694  -1.605   0.000  1.00  0.00    -0.393 OA
ATOM     17  H   UNL     1       0.000   0.000   0.000  1.00  0.00     0.210 HD
ENDBRANCH  15  16
BRANCH  15  18
ATOM     18  C   UNL     1       2.278   0.454   0.000  1.00  0.00     0.068 C 
BRANCH  18  19
ATOM     19  C   UNL     1       3.467  -0.460   0.000  1.00  0.00     0.140 C 
BRANCH  19  20
ATOM     20  O   UNL     1       3.270  -1.947   0.000  1.00  0.00    -0.389 OA
ATOM     21  H   UNL     1       0.000   0.000   0.000  1.00  0.00     0.211 HD
ENDBRANCH  19  20
BRANCH  19  22
ATOM     22  C   UNL     1       4.853   0.113   0.000  1.00  0.00     0.005 C 
BRANCH  22  23
ATOM     23  C   UNL     1       6.043  -0.802   0.000  1.00  0.00     0.006 C 
BRANCH  23  24
ATOM     24  C   UNL     1       7.429  -0.229   0.000  1.00  0.00    -0.026 A 
ATOM     25  C   UNL     1       8.618  -1.143   0.000  1.00  0.00     0.008 A 
ATOM     26  C   UNL     1       7.626   1.258   0.000  1.00  0.00     0.008 A 
ATOM     27  C   UNL     1      10.004  -0.571   0.000  1.00  0.00     0.001 A 
ATOM     28  C   UNL     1       9.013   1.830   0.000  1.00  0.00     0.001 A 
ATOM     29  C   UNL     1      10.202   0.916   0.000  1.00  0.00     0.000 A 
ENDBRANCH  23  24
ENDBRANCH  22  23
ENDBRANCH  19  22
ENDBRANCH  18  19
ENDBRANCH  15  18
ENDBRANCH   1  15
TORSDOF 14
