REMARK SMILES COc1c2c(cc3oc(=O)ccc13)OC(C)(C)C=C2
REMARK SMILES IDX 3 1 4 2 19 3 18 4 15 5 16 6 17 7 14 8 5 9 6 10 7 11 13 12
REMARK SMILES IDX 12 13 11 14 9 15 10 16 8 17 2 18 1 19
REMARK H PARENT
ROOT
ATOM      1  C   UNL     1      -0.279  -1.345   0.000  1.00  0.00     0.140 A 
ATOM      2  C   UNL     1       1.075  -0.699   0.000  1.00  0.00     0.059 A 
ATOM      3  C   UNL     1       2.311  -1.548   0.000  1.00  0.00     0.015 C 
ATOM      4  C   UNL     1       3.665  -0.901   0.000  1.00  0.00     0.021 C 
ATOM      5  C   UNL     1       3.782   0.594   0.000  1.00  0.00     0.122 C 
ATOM      6  C   UNL     1       4.403   1.959   0.000  1.00  0.00     0.061 C 
ATOM      7  C   UNL     1       5.234   0.219   0.000  1.00  0.00     0.061 C 
ATOM      8  O   UNL     1       2.545   1.443   0.000  1.00  0.00    -0.483 OA
ATOM      9  C   UNL     1       1.192   0.796   0.000  1.00  0.00     0.135 A 
ATOM     10  C   UNL     1      -0.045   1.645   0.000  1.00  0.00     0.095 A 
ATOM     11  C   UNL     1      -1.399   0.999   0.000  1.00  0.00     0.145 A 
ATOM     12  C   UNL     1      -1.516  -0.496   0.000  1.00  0.00     0.061 A 
ATOM     13  C   UNL     1      -2.869  -1.143   0.000  1.00  0.00     0.023 A 
ATOM     14  C   UNL     1      -4.106  -0.294   0.000  1.00  0.00     0.095 A 
ATOM     15  C   UNL     1      -3.989   1.201   0.000  1.00  0.00     0.336 A 
ATOM     16  O   UNL     1      -5.225   2.050   0.000  1.00  0.00    -0.246 OA
ATOM     17  O   UNL     1      -2.635   1.848   0.000  1.00  0.00    -0.422 OA
ENDROOT
BRANCH   1  18
ATOM     18  O   UNL     1      -0.396  -2.841   0.000  1.00  0.00    -0.495 OA
ATOM     19  C   UNL     1      -1.749  -3.487   0.000  1.00  0.00     0.278 C 
ENDBRANCH   1  18
TORSDOF 1
