REMARK SMILES COc1cc(=O)n(OC)c2ccccc12
REMARK SMILES IDX 3 1 4 2 5 3 6 4 7 5 10 6 11 7 12 8 13 9 14 10 15 11 2 12
REMARK SMILES IDX 1 13 8 14 9 15
REMARK H PARENT
ROOT
ATOM      1  C   UNL     1       1.043   1.320   0.000  1.00  0.00     0.133 A 
ATOM      2  C   UNL     1      -0.301   1.985   0.000  1.00  0.00     0.122 A 
ATOM      3  C   UNL     1      -1.550   1.153   0.000  1.00  0.00     0.287 A 
ATOM      4  O   UNL     1      -2.894   1.818   0.000  1.00  0.00    -0.266 OA
ATOM      5  N   UNL     1      -1.453  -0.344   0.000  1.00  0.00    -0.145 N 
ATOM      6  C   UNL     1      -0.109  -1.009   0.000  1.00  0.00     0.095 A 
ATOM      7  C   UNL     1      -0.012  -2.506   0.000  1.00  0.00     0.031 A 
ATOM      8  C   UNL     1       1.332  -3.171   0.000  1.00  0.00     0.002 A 
ATOM      9  C   UNL     1       2.580  -2.339   0.000  1.00  0.00     0.001 A 
ATOM     10  C   UNL     1       2.484  -0.842   0.000  1.00  0.00     0.014 A 
ATOM     11  C   UNL     1       1.140  -0.177   0.000  1.00  0.00     0.044 A 
ENDROOT
BRANCH   1  12
ATOM     12  O   UNL     1       2.291   2.152   0.000  1.00  0.00    -0.496 OA
ATOM     13  C   UNL     1       2.195   3.648   0.000  1.00  0.00     0.278 C 
ENDBRANCH   1  12
BRANCH   5  14
ATOM     14  O   UNL     1      -2.701  -1.176   0.000  1.00  0.00    -0.413 OA
ATOM     15  C   UNL     1      -4.046  -0.511   0.000  1.00  0.00     0.313 C 
ENDBRANCH   5  14
TORSDOF 2
