REMARK SMILES COc1ccc(-c2cc(=O)c3c(OC)c(OC)c(OC)c(OC)c3o2)cc1
REMARK SMILES IDX 7 1 8 2 9 3 10 4 11 5 12 6 15 7 18 8 21 9 24 10 25 11 6 12
REMARK SMILES IDX 3 13 4 14 27 15 5 16 26 17 2 18 1 19 22 20 23 21 13 22 14 23
REMARK SMILES IDX 19 24 20 25 16 26 17 27
REMARK H PARENT
ROOT
ATOM      1  C   UNL     1      -1.603  -0.659   0.000  1.00  0.00     0.138 A 
ATOM      2  C   UNL     1      -1.077  -2.064   0.000  1.00  0.00     0.100 A 
ATOM      3  C   UNL     1       0.403  -2.311   0.000  1.00  0.00     0.197 A 
ATOM      4  O   UNL     1       0.929  -3.716   0.000  1.00  0.00    -0.289 OA
ATOM      5  C   UNL     1       1.357  -1.153   0.000  1.00  0.00     0.115 A 
ATOM      6  C   UNL     1       2.836  -1.400   0.000  1.00  0.00     0.179 A 
ATOM      7  C   UNL     1       3.790  -0.242   0.000  1.00  0.00     0.208 A 
ATOM      8  C   UNL     1       3.264   1.163   0.000  1.00  0.00     0.211 A 
ATOM      9  C   UNL     1       1.784   1.409   0.000  1.00  0.00     0.209 A 
ATOM     10  C   UNL     1       0.831   0.252   0.000  1.00  0.00     0.188 A 
ATOM     11  O   UNL     1      -0.649   0.498   0.000  1.00  0.00    -0.452 OA
ENDROOT
BRANCH   1  12
ATOM     12  C   UNL     1      -3.082  -0.412   0.000  1.00  0.00     0.018 A 
ATOM     13  C   UNL     1      -6.041   0.081   0.000  1.00  0.00     0.118 A 
ATOM     14  C   UNL     1      -5.088   1.239   0.000  1.00  0.00     0.047 A 
ATOM     15  C   UNL     1      -5.515  -1.323   0.000  1.00  0.00     0.047 A 
ATOM     16  C   UNL     1      -3.608   0.992   0.000  1.00  0.00     0.016 A 
ATOM     17  C   UNL     1      -4.036  -1.570   0.000  1.00  0.00     0.016 A 
BRANCH  13  18
ATOM     18  O   UNL     1      -7.521   0.328   0.000  1.00  0.00    -0.497 OA
ATOM     19  C   UNL     1      -8.047   1.733   0.000  1.00  0.00     0.278 C 
ENDBRANCH  13  18
ENDBRANCH   1  12
BRANCH   9  20
ATOM     20  O   UNL     1       1.258   2.814   0.000  1.00  0.00    -0.490 OA
ATOM     21  C   UNL     1       2.212   3.972   0.000  1.00  0.00     0.278 C 
ENDBRANCH   9  20
BRANCH   6  22
ATOM     22  O   UNL     1       3.362  -2.805   0.000  1.00  0.00    -0.492 OA
ATOM     23  C   UNL     1       4.841  -3.052   0.000  1.00  0.00     0.278 C 
ENDBRANCH   6  22
BRANCH   8  24
ATOM     24  O   UNL     1       4.217   2.321   0.000  1.00  0.00    -0.490 OA
ATOM     25  C   UNL     1       3.691   3.725   0.000  1.00  0.00     0.279 C 
ENDBRANCH   8  24
BRANCH   7  26
ATOM     26  O   UNL     1       5.269  -0.489   0.000  1.00  0.00    -0.490 OA
ATOM     27  C   UNL     1       6.223   0.669   0.000  1.00  0.00     0.278 C 
ENDBRANCH   7  26
TORSDOF 6
