REMARK SMILES Cc1nccc2c(C)c3[nH]c4ccccc4c3cc12
REMARK SMILES IDX 1 1 2 2 3 3 4 4 5 5 6 6 7 7 8 8 9 9 17 10 18 11 19 12 16 13
REMARK SMILES IDX 15 14 14 15 13 16 12 17 11 18 10 19
REMARK H PARENT 10 20
ROOT
ATOM      1  C   UNL     1      -2.824  -3.087   0.000  1.00  0.00     0.067 C 
ATOM      2  C   UNL     1      -3.047  -1.604   0.000  1.00  0.00     0.045 A 
ATOM      3  N   UNL     1      -4.444  -1.056   0.000  1.00  0.00    -0.261 NA
ATOM      4  C   UNL     1      -4.668   0.427   0.000  1.00  0.00     0.112 A 
ATOM      5  C   UNL     1      -3.495   1.362   0.000  1.00  0.00     0.029 A 
ATOM      6  C   UNL     1      -2.099   0.815   0.000  1.00  0.00    -0.010 A 
ATOM      7  C   UNL     1      -0.926   1.750   0.000  1.00  0.00    -0.019 A 
ATOM      8  C   UNL     1      -1.151   3.233   0.000  1.00  0.00     0.047 C 
ATOM      9  C   UNL     1       0.470   1.202   0.000  1.00  0.00     0.050 A 
ATOM     10  C   UNL     1       0.694  -0.281   0.000  1.00  0.00     0.008 A 
ATOM     11  C   UNL     1      -0.479  -1.216   0.000  1.00  0.00     0.021 A 
ATOM     12  C   UNL     1      -1.875  -0.669   0.000  1.00  0.00     0.004 A 
ATOM     13  C   UNL     1       2.174  -0.526   0.000  1.00  0.00     0.007 A 
ATOM     14  C   UNL     1       2.982  -1.790   0.000  1.00  0.00     0.011 A 
ATOM     15  C   UNL     1       4.480  -1.722   0.000  1.00  0.00     0.001 A 
ATOM     16  C   UNL     1       5.171  -0.391   0.000  1.00  0.00     0.002 A 
ATOM     17  C   UNL     1       4.363   0.873   0.000  1.00  0.00     0.027 A 
ATOM     18  C   UNL     1       2.864   0.806   0.000  1.00  0.00     0.046 A 
ATOM     19  N   UNL     1       1.811   1.874   0.000  1.00  0.00    -0.354 N 
ATOM     20  H   UNL     1       0.000   0.000   0.000  1.00  0.00     0.167 HD
ENDROOT
TORSDOF 0
