REMARK SMILES COc1c(C(C)C)cc2c(c1OC)[C@@]1(C(O)O)CCCC(C)(C)C1CC2
REMARK SMILES IDX 3 1 4 2 8 3 9 4 26 5 25 6 24 7 21 8 22 9 23 10 20 11 19 12
REMARK SMILES IDX 18 13 14 14 10 15 11 16 2 17 1 18 5 19 6 20 7 21 12 22 13 23
REMARK SMILES IDX 15 24 16 25 17 27
REMARK H PARENT 16 26 17 28
ROOT
ATOM      1  C   UNL     1      -2.443   0.312   0.000  1.00  0.00     0.164 A 
ATOM      2  C   UNL     1      -2.809  -1.143   0.000  1.00  0.00     0.001 A 
ATOM      3  C   UNL     1      -1.732  -2.187   0.000  1.00  0.00     0.012 A 
ATOM      4  C   UNL     1      -0.289  -1.777   0.000  1.00  0.00    -0.040 A 
ATOM      5  C   UNL     1       0.788  -2.821   0.000  1.00  0.00     0.036 C 
ATOM      6  C   UNL     1       2.230  -2.410   0.000  1.00  0.00     0.010 C 
ATOM      7  C   UNL     1       2.596  -0.956   0.000  1.00  0.00     0.011 C 
ATOM      8  C   UNL     1       4.039  -0.545   0.000  1.00  0.00    -0.032 C 
ATOM      9  C   UNL     1       5.535  -0.653   0.000  1.00  0.00     0.011 C 
ATOM     10  C   UNL     1       4.193  -2.037   0.000  1.00  0.00     0.011 C 
ATOM     11  C   UNL     1       4.405   0.910   0.000  1.00  0.00     0.007 C 
ATOM     12  C   UNL     1       3.328   1.954   0.000  1.00  0.00     0.002 C 
ATOM     13  C   UNL     1       1.885   1.543   0.000  1.00  0.00     0.017 C 
ATOM     14  C   UNL     1       1.519   0.089   0.000  1.00  0.00     0.053 C 
ATOM     15  C   UNL     1       0.077  -0.322   0.000  1.00  0.00     0.013 A 
ATOM     16  C   UNL     1      -1.000   0.722   0.000  1.00  0.00     0.165 A 
ENDROOT
BRANCH   1  17
ATOM     17  O   UNL     1      -3.520   1.356   0.000  1.00  0.00    -0.493 OA
ATOM     18  C   UNL     1      -3.154   2.811   0.000  1.00  0.00     0.278 C 
ENDBRANCH   1  17
BRANCH   2  19
ATOM     19  C   UNL     1      -4.252  -1.554   0.000  1.00  0.00     0.017 C 
ATOM     20  C   UNL     1      -5.329  -0.509   0.000  1.00  0.00     0.012 C 
ATOM     21  C   UNL     1      -4.617  -3.008   0.000  1.00  0.00     0.012 C 
ENDBRANCH   2  19
BRANCH  16  22
ATOM     22  O   UNL     1      -0.634   2.177   0.000  1.00  0.00    -0.493 OA
ATOM     23  C   UNL     1      -1.711   3.221   0.000  1.00  0.00     0.278 C 
ENDBRANCH  16  22
BRANCH  14  24
ATOM     24  C   UNL     1       0.442   1.133   0.000  1.00  0.00     0.254 C 
BRANCH  24  25
ATOM     25  O   UNL     1       0.808   2.587   0.000  1.00  0.00    -0.367 OA
ATOM     26  H   UNL     1       0.000   0.000   0.000  1.00  0.00     0.213 HD
ENDBRANCH  24  25
BRANCH  24  27
ATOM     27  O   UNL     1      -0.354   1.107   0.000  1.00  0.00    -0.367 OA
ATOM     28  H   UNL     1       0.000   0.000   0.000  1.00  0.00     0.213 HD
ENDBRANCH  24  27
ENDBRANCH  14  24
TORSDOF 6
