REMARK SMILES COc1cc(-c2cc(=O)c3c(OC(C)=O)c4c(cc3o2)OC(C)(C)C=C4)cc(OC)c1OC(C)=O
REMARK SMILES IDX 6 1 7 2 8 3 9 4 10 5 11 6 16 7 17 8 18 9 19 10 20 11 21 12
REMARK SMILES IDX 22 13 23 14 24 15 25 16 26 17 5 18 3 19 4 20 31 21 28 22
REMARK SMILES IDX 27 23 2 24 1 25 32 26 33 27 34 28 35 29 29 30 30 31 12 32
REMARK SMILES IDX 13 33 14 34 15 35
REMARK H PARENT
ROOT
ATOM      1  C   UNL     1      -1.013   0.193   0.000  1.00  0.00     0.138 A 
ATOM      2  C   UNL     1      -0.537   1.615   0.000  1.00  0.00     0.100 A 
ATOM      3  C   UNL     1       0.932   1.915   0.000  1.00  0.00     0.197 A 
ATOM      4  O   UNL     1       1.408   3.337   0.000  1.00  0.00    -0.289 OA
ATOM      5  C   UNL     1       1.927   0.791   0.000  1.00  0.00     0.108 A 
ATOM      6  C   UNL     1       3.396   1.091   0.000  1.00  0.00     0.156 A 
ATOM      7  C   UNL     1       4.391  -0.033   0.000  1.00  0.00     0.060 A 
ATOM      8  C   UNL     1       3.915  -1.455   0.000  1.00  0.00     0.135 A 
ATOM      9  C   UNL     1       2.445  -1.754   0.000  1.00  0.00     0.095 A 
ATOM     10  C   UNL     1       1.451  -0.631   0.000  1.00  0.00     0.146 A 
ATOM     11  O   UNL     1      -0.019  -0.931   0.000  1.00  0.00    -0.456 OA
ATOM     12  O   UNL     1       4.909  -2.579   0.000  1.00  0.00    -0.483 OA
ATOM     13  C   UNL     1       6.379  -2.279   0.000  1.00  0.00     0.122 C 
ATOM     14  C   UNL     1       7.862  -2.501   0.000  1.00  0.00     0.061 C 
ATOM     15  C   UNL     1       6.418  -3.779   0.000  1.00  0.00     0.061 C 
ATOM     16  C   UNL     1       6.854  -0.857   0.000  1.00  0.00     0.021 C 
ATOM     17  C   UNL     1       5.860   0.267   0.000  1.00  0.00     0.015 C 
ENDROOT
BRANCH   1  18
ATOM     18  C   UNL     1      -2.483  -0.107   0.000  1.00  0.00     0.025 A 
ATOM     19  C   UNL     1      -4.947   0.717   0.000  1.00  0.00     0.166 A 
ATOM     20  C   UNL     1      -3.477   1.016   0.000  1.00  0.00     0.062 A 
ATOM     21  C   UNL     1      -5.423  -0.705   0.000  1.00  0.00     0.214 A 
ATOM     22  C   UNL     1      -4.428  -1.829   0.000  1.00  0.00     0.166 A 
ATOM     23  C   UNL     1      -2.959  -1.529   0.000  1.00  0.00     0.062 A 
BRANCH  19  24
ATOM     24  O   UNL     1      -5.941   1.840   0.000  1.00  0.00    -0.493 OA
ATOM     25  C   UNL     1      -5.465   3.263   0.000  1.00  0.00     0.278 C 
ENDBRANCH  19  24
BRANCH  21  26
ATOM     26  O   UNL     1      -6.892  -1.005   0.000  1.00  0.00    -0.419 OA
BRANCH  26  27
ATOM     27  C   UNL     1      -7.886   0.118   0.000  1.00  0.00     0.308 C 
ATOM     28  C   UNL     1      -9.356  -0.181   0.000  1.00  0.00     0.139 C 
ATOM     29  O   UNL     1      -7.411   1.541   0.000  1.00  0.00    -0.252 OA
ENDBRANCH  26  27
ENDBRANCH  21  26
BRANCH  22  30
ATOM     30  O   UNL     1      -4.904  -3.251   0.000  1.00  0.00    -0.493 OA
ATOM     31  C   UNL     1      -6.374  -3.550   0.000  1.00  0.00     0.278 C 
ENDBRANCH  22  30
ENDBRANCH   1  18
BRANCH   6  32
ATOM     32  O   UNL     1       3.872   2.513   0.000  1.00  0.00    -0.425 OA
BRANCH  32  33
ATOM     33  C   UNL     1       5.342   2.812   0.000  1.00  0.00     0.308 C 
ATOM     34  C   UNL     1       5.818   4.235   0.000  1.00  0.00     0.139 C 
ATOM     35  O   UNL     1       6.336   1.689   0.000  1.00  0.00    -0.252 OA
ENDBRANCH  32  33
ENDBRANCH   6  32
TORSDOF 7
