REMARK SMILES O=c1c(O)c(-c2ccccc2)oc2cc(O)ccc12
REMARK SMILES IDX 1 1 2 2 3 3 5 4 12 5 13 6 14 7 15 8 17 9 18 10 19 11 4 12
REMARK SMILES IDX 6 14 7 15 11 16 8 17 10 18 9 19 16 20
REMARK H PARENT 4 13 16 21
ROOT
ATOM      1  O   UNL     1       1.345   3.314   0.000  1.00  0.00    -0.285 OA
ATOM      2  C   UNL     1       0.944   1.868   0.000  1.00  0.00     0.235 A 
ATOM      3  C   UNL     1      -0.508   1.493   0.000  1.00  0.00     0.208 A 
ATOM      4  C   UNL     1      -0.909   0.047   0.000  1.00  0.00     0.180 A 
ATOM      5  O   UNL     1       0.142  -1.022   0.000  1.00  0.00    -0.452 OA
ATOM      6  C   UNL     1       1.594  -0.647   0.000  1.00  0.00     0.142 A 
ATOM      7  C   UNL     1       2.646  -1.717   0.000  1.00  0.00     0.094 A 
ATOM      8  C   UNL     1       4.098  -1.341   0.000  1.00  0.00     0.119 A 
ATOM      9  C   UNL     1       4.499   0.104   0.000  1.00  0.00     0.047 A 
ATOM     10  C   UNL     1       3.447   1.174   0.000  1.00  0.00     0.020 A 
ATOM     11  C   UNL     1       1.995   0.798   0.000  1.00  0.00     0.069 A 
ENDROOT
BRANCH   3  12
ATOM     12  O   UNL     1      -1.560   2.563   0.000  1.00  0.00    -0.502 OA
ATOM     13  H   UNL     1       0.000   0.000   0.000  1.00  0.00     0.293 HD
ENDBRANCH   3  12
BRANCH   4  14
ATOM     14  C   UNL     1      -2.361  -0.328   0.000  1.00  0.00     0.021 A 
ATOM     15  C   UNL     1      -3.413   0.742   0.000  1.00  0.00     0.012 A 
ATOM     16  C   UNL     1      -2.762  -1.774   0.000  1.00  0.00     0.012 A 
ATOM     17  C   UNL     1      -4.865   0.366   0.000  1.00  0.00     0.001 A 
ATOM     18  C   UNL     1      -4.215  -2.149   0.000  1.00  0.00     0.001 A 
ATOM     19  C   UNL     1      -5.266  -1.079   0.000  1.00  0.00     0.000 A 
ENDBRANCH   4  14
BRANCH   8  20
ATOM     20  O   UNL     1       5.149  -2.411   0.000  1.00  0.00    -0.508 OA
ATOM     21  H   UNL     1       0.000   0.000   0.000  1.00  0.00     0.293 HD
ENDBRANCH   8  20
TORSDOF 3
