REMARK SMILES CCc1c(C)ccc2c1CC[C@H]1C(C)(C)[C@@H](O)CC[C@]21C
REMARK SMILES IDX 3 1 4 2 5 3 6 4 7 5 8 6 9 7 10 8 11 9 12 10 13 11 14 12
REMARK SMILES IDX 15 13 16 14 18 15 19 16 20 17 21 18 2 19 1 20 17 21
REMARK H PARENT 17 22
ROOT
ATOM      1  C   UNL     1      -2.937  -0.523   0.000  1.00  0.00    -0.042 A 
ATOM      2  C   UNL     1      -3.631   0.806   0.000  1.00  0.00    -0.048 A 
ATOM      3  C   UNL     1      -5.130   0.870   0.000  1.00  0.00     0.044 C 
ATOM      4  C   UNL     1      -2.826   2.072   0.000  1.00  0.00     0.004 A 
ATOM      5  C   UNL     1      -1.328   2.009   0.000  1.00  0.00     0.005 A 
ATOM      6  C   UNL     1      -0.634   0.679   0.000  1.00  0.00    -0.038 A 
ATOM      7  C   UNL     1      -1.438  -0.587   0.000  1.00  0.00    -0.041 A 
ATOM      8  C   UNL     1      -0.744  -1.917   0.000  1.00  0.00     0.036 C 
ATOM      9  C   UNL     1       0.755  -1.980   0.000  1.00  0.00     0.010 C 
ATOM     10  C   UNL     1       1.559  -0.714   0.000  1.00  0.00     0.008 C 
ATOM     11  C   UNL     1       3.058  -0.778   0.000  1.00  0.00    -0.006 C 
ATOM     12  C   UNL     1       4.444  -1.350   0.000  1.00  0.00     0.014 C 
ATOM     13  C   UNL     1       2.735  -2.243   0.000  1.00  0.00     0.014 C 
ATOM     14  C   UNL     1       3.862   0.488   0.000  1.00  0.00     0.120 C 
ATOM     15  C   UNL     1       3.168   1.818   0.000  1.00  0.00     0.033 C 
ATOM     16  C   UNL     1       1.669   1.881   0.000  1.00  0.00     0.014 C 
ATOM     17  C   UNL     1       0.865   0.615   0.000  1.00  0.00    -0.004 C 
ATOM     18  C   UNL     1       0.171   1.945   0.000  1.00  0.00     0.017 C 
ENDROOT
BRANCH   1  19
ATOM     19  C   UNL     1      -3.741  -1.789   0.000  1.00  0.00     0.032 C 
ATOM     20  C   UNL     1      -5.240  -1.726   0.000  1.00  0.00     0.009 C 
ENDBRANCH   1  19
BRANCH  14  21
ATOM     21  O   UNL     1       5.361   0.424   0.000  1.00  0.00    -0.393 OA
ATOM     22  H   UNL     1       0.000   0.000   0.000  1.00  0.00     0.210 HD
ENDBRANCH  14  21
TORSDOF 2
