REMARK SMILES COc1ccc(-c2cc(=O)c3c(OC)c(OC)c(OC)cc3o2)cc1OC
REMARK SMILES IDX 7 1 8 2 9 3 10 4 11 5 12 6 15 7 18 8 21 9 22 10 23 11 6 12
REMARK SMILES IDX 3 13 4 14 25 15 5 16 24 17 2 18 1 19 26 20 27 21 13 22 14 23
REMARK SMILES IDX 19 24 20 25 16 26 17 27
REMARK H PARENT
ROOT
ATOM      1  C   UNL     1      -1.073  -0.015   0.000  1.00  0.00     0.138 A 
ATOM      2  C   UNL     1      -0.549  -1.420   0.000  1.00  0.00     0.100 A 
ATOM      3  C   UNL     1       0.931  -1.669   0.000  1.00  0.00     0.197 A 
ATOM      4  O   UNL     1       1.455  -3.074   0.000  1.00  0.00    -0.289 OA
ATOM      5  C   UNL     1       1.886  -0.512   0.000  1.00  0.00     0.111 A 
ATOM      6  C   UNL     1       3.365  -0.761   0.000  1.00  0.00     0.179 A 
ATOM      7  C   UNL     1       4.320   0.396   0.000  1.00  0.00     0.204 A 
ATOM      8  C   UNL     1       3.796   1.801   0.000  1.00  0.00     0.168 A 
ATOM      9  C   UNL     1       2.317   2.050   0.000  1.00  0.00     0.098 A 
ATOM     10  C   UNL     1       1.361   0.893   0.000  1.00  0.00     0.146 A 
ATOM     11  O   UNL     1      -0.118   1.142   0.000  1.00  0.00    -0.456 OA
ENDROOT
BRANCH   1  12
ATOM     12  C   UNL     1      -2.552   0.234   0.000  1.00  0.00     0.021 A 
ATOM     13  C   UNL     1      -5.511   0.732   0.000  1.00  0.00     0.160 A 
ATOM     14  C   UNL     1      -4.556   1.888   0.000  1.00  0.00     0.051 A 
ATOM     15  C   UNL     1      -4.986  -0.674   0.000  1.00  0.00     0.161 A 
ATOM     16  C   UNL     1      -3.076   1.639   0.000  1.00  0.00     0.016 A 
ATOM     17  C   UNL     1      -3.507  -0.923   0.000  1.00  0.00     0.062 A 
BRANCH  13  18
ATOM     18  O   UNL     1      -6.990   0.980   0.000  1.00  0.00    -0.493 OA
ATOM     19  C   UNL     1      -7.514   2.386   0.000  1.00  0.00     0.278 C 
ENDBRANCH  13  18
BRANCH  15  20
ATOM     20  O   UNL     1      -5.941  -1.831   0.000  1.00  0.00    -0.493 OA
ATOM     21  C   UNL     1      -5.417  -3.236   0.000  1.00  0.00     0.278 C 
ENDBRANCH  15  20
ENDBRANCH   1  12
BRANCH   6  22
ATOM     22  O   UNL     1       3.889  -2.166   0.000  1.00  0.00    -0.492 OA
ATOM     23  C   UNL     1       5.368  -2.415   0.000  1.00  0.00     0.278 C 
ENDBRANCH   6  22
BRANCH   8  24
ATOM     24  O   UNL     1       4.751   2.958   0.000  1.00  0.00    -0.493 OA
ATOM     25  C   UNL     1       6.230   2.709   0.000  1.00  0.00     0.278 C 
ENDBRANCH   8  24
BRANCH   7  26
ATOM     26  O   UNL     1       5.799   0.147   0.000  1.00  0.00    -0.490 OA
ATOM     27  C   UNL     1       6.323  -1.258   0.000  1.00  0.00     0.278 C 
ENDBRANCH   7  26
TORSDOF 6
