REMARK SMILES C/C=C/c1cc(OC)c2c(c1)[C@@H](C)[C@H](c1cc(OC)c(OC)c(OC)c1)O2
REMARK SMILES IDX 4 1 5 2 6 3 9 4 27 5 14 6 12 7 13 8 10 9 11 10 3 11 2 12
REMARK SMILES IDX 1 13 7 14 8 15 15 16 16 17 26 18 17 19 23 20 20 21 18 22
REMARK SMILES IDX 19 23 24 24 25 25 21 26 22 27
REMARK H PARENT
ROOT
ATOM      1  C   UNL     1      -4.642  -0.706   0.000  1.00  0.00    -0.022 A 
ATOM      2  C   UNL     1      -4.608   0.793   0.000  1.00  0.00     0.058 A 
ATOM      3  C   UNL     1      -3.292   1.514   0.000  1.00  0.00     0.161 A 
ATOM      4  C   UNL     1      -2.011   0.734   0.000  1.00  0.00     0.165 A 
ATOM      5  O   UNL     1      -0.574   1.165   0.000  1.00  0.00    -0.481 OA
ATOM      6  C   UNL     1       0.280  -0.068   0.000  1.00  0.00     0.211 C 
ATOM      7  C   UNL     1      -0.629  -1.261   0.000  1.00  0.00     0.066 C 
ATOM      8  C   UNL     1      -0.198  -2.698   0.000  1.00  0.00     0.017 C 
ATOM      9  C   UNL     1      -2.045  -0.765   0.000  1.00  0.00     0.005 A 
ATOM     10  C   UNL     1      -3.360  -1.486   0.000  1.00  0.00     0.016 A 
ENDROOT
BRANCH   1  11
ATOM     11  C   UNL     1      -5.958  -1.427   0.000  1.00  0.00     0.003 C 
BRANCH  11  12
ATOM     12  C   UNL     1      -7.239  -0.647   0.000  1.00  0.00    -0.030 C 
ATOM     13  C   UNL     1      -8.555  -1.368   0.000  1.00  0.00     0.035 C 
ENDBRANCH  11  12
ENDBRANCH   1  11
BRANCH   3  14
ATOM     14  O   UNL     1      -3.258   3.013   0.000  1.00  0.00    -0.493 OA
ATOM     15  C   UNL     1      -4.540   3.793   0.000  1.00  0.00     0.278 C 
ENDBRANCH   3  14
BRANCH   6  16
ATOM     16  C   UNL     1       1.780  -0.102   0.000  1.00  0.00     0.001 A 
ATOM     17  C   UNL     1       2.500  -1.418   0.000  1.00  0.00     0.058 A 
ATOM     18  C   UNL     1       2.559   1.180   0.000  1.00  0.00     0.058 A 
ATOM     19  C   UNL     1       4.000  -1.452   0.000  1.00  0.00     0.165 A 
ATOM     20  C   UNL     1       4.059   1.146   0.000  1.00  0.00     0.165 A 
ATOM     21  C   UNL     1       4.779  -0.170   0.000  1.00  0.00     0.203 A 
BRANCH  19  22
ATOM     22  O   UNL     1       4.720  -2.767   0.000  1.00  0.00    -0.493 OA
ATOM     23  C   UNL     1       3.941  -4.049   0.000  1.00  0.00     0.278 C 
ENDBRANCH  19  22
BRANCH  20  24
ATOM     24  O   UNL     1       4.838   2.428   0.000  1.00  0.00    -0.493 OA
ATOM     25  C   UNL     1       4.118   3.743   0.000  1.00  0.00     0.278 C 
ENDBRANCH  20  24
BRANCH  21  26
ATOM     26  O   UNL     1       6.279  -0.204   0.000  1.00  0.00    -0.490 OA
ATOM     27  C   UNL     1       7.058   1.078   0.000  1.00  0.00     0.278 C 
ENDBRANCH  21  26
ENDBRANCH   6  16
TORSDOF 7
