REMARK SMILES C=C[C@]1(C)CC2=C(C[C@H]1O)[C@@]1(C)CCCC(C)(C)[C@@H]1CC2=O
REMARK SMILES IDX 3 1 4 2 5 3 6 4 7 5 8 6 9 7 11 8 12 9 13 10 14 11 15 12
REMARK SMILES IDX 16 13 17 14 18 15 19 16 20 17 21 18 22 19 2 20 1 21 10 22
REMARK H PARENT 10 23
ROOT
ATOM      1  C   UNL     1      -3.225  -0.154   0.000  1.00  0.00     0.016 C 
ATOM      2  C   UNL     1      -4.485  -0.968   0.000  1.00  0.00     0.019 C 
ATOM      3  C   UNL     1      -2.318   1.041   0.000  1.00  0.00     0.052 C 
ATOM      4  C   UNL     1      -0.830   0.854   0.000  1.00  0.00    -0.004 C 
ATOM      5  C   UNL     1      -0.248  -0.529   0.000  1.00  0.00    -0.055 C 
ATOM      6  C   UNL     1      -1.154  -1.724   0.000  1.00  0.00     0.064 C 
ATOM      7  C   UNL     1      -2.643  -1.537   0.000  1.00  0.00     0.128 C 
ATOM      8  C   UNL     1       1.240  -0.716   0.000  1.00  0.00    -0.007 C 
ATOM      9  C   UNL     1       0.334  -1.911   0.000  1.00  0.00     0.016 C 
ATOM     10  C   UNL     1       1.822  -2.099   0.000  1.00  0.00     0.011 C 
ATOM     11  C   UNL     1       3.310  -2.286   0.000  1.00  0.00     0.001 C 
ATOM     12  C   UNL     1       4.217  -1.091   0.000  1.00  0.00     0.007 C 
ATOM     13  C   UNL     1       3.635   0.292   0.000  1.00  0.00    -0.031 C 
ATOM     14  C   UNL     1       3.561   1.790   0.000  1.00  0.00     0.011 C 
ATOM     15  C   UNL     1       5.097   0.625   0.000  1.00  0.00     0.011 C 
ATOM     16  C   UNL     1       2.147   0.479   0.000  1.00  0.00     0.012 C 
ATOM     17  C   UNL     1       1.565   1.862   0.000  1.00  0.00     0.085 C 
ATOM     18  C   UNL     1       0.076   2.049   0.000  1.00  0.00     0.159 C 
ATOM     19  O   UNL     1      -0.506   3.431   0.000  1.00  0.00    -0.295 OA
ENDROOT
BRANCH   1  20
ATOM     20  C   UNL     1      -4.244   0.946   0.000  1.00  0.00    -0.025 C 
ATOM     21  C   UNL     1      -3.801   2.379   0.000  1.00  0.00     0.005 C 
ENDBRANCH   1  20
BRANCH   7  22
ATOM     22  O   UNL     1      -3.549  -2.732   0.000  1.00  0.00    -0.392 OA
ATOM     23  H   UNL     1       0.000   0.000   0.000  1.00  0.00     0.211 HD
ENDBRANCH   7  22
TORSDOF 2
