REMARK SMILES C=CCc1cc(OC)c2c(c1)O[C@H](c1ccc3c(c1)OCO3)[C@@H](C)O2
REMARK SMILES IDX 4 1 5 2 6 3 9 4 25 5 23 6 24 7 13 8 12 9 10 10 11 11 3 12
REMARK SMILES IDX 2 13 1 14 7 15 8 16 14 17 15 18 19 19 16 20 18 21 17 22
REMARK SMILES IDX 20 23 22 24 21 25
REMARK H PARENT
ROOT
ATOM      1  C   UNL     1      -3.825  -1.273   0.000  1.00  0.00    -0.037 A 
ATOM      2  C   UNL     1      -4.366   0.126   0.000  1.00  0.00     0.054 A 
ATOM      3  C   UNL     1      -3.426   1.294   0.000  1.00  0.00     0.164 A 
ATOM      4  C   UNL     1      -1.943   1.064   0.000  1.00  0.00     0.204 A 
ATOM      5  O   UNL     1      -1.003   2.232   0.000  1.00  0.00    -0.479 OA
ATOM      6  C   UNL     1       0.479   2.002   0.000  1.00  0.00     0.216 C 
ATOM      7  C   UNL     1       1.420   3.170   0.000  1.00  0.00     0.057 C 
ATOM      8  C   UNL     1       1.021   0.603   0.000  1.00  0.00     0.244 C 
ATOM      9  O   UNL     1       0.080  -0.565   0.000  1.00  0.00    -0.478 OA
ATOM     10  C   UNL     1      -1.402  -0.335   0.000  1.00  0.00     0.166 A 
ATOM     11  C   UNL     1      -2.343  -1.503   0.000  1.00  0.00     0.054 A 
ENDROOT
BRANCH   1  12
ATOM     12  C   UNL     1      -4.766  -2.441   0.000  1.00  0.00     0.062 C 
BRANCH  12  13
ATOM     13  C   UNL     1      -6.248  -2.211   0.000  1.00  0.00    -0.030 C 
ATOM     14  C   UNL     1      -7.188  -3.379   0.000  1.00  0.00     0.004 C 
ENDBRANCH  12  13
ENDBRANCH   1  12
BRANCH   3  15
ATOM     15  O   UNL     1      -3.967   2.693   0.000  1.00  0.00    -0.493 OA
ATOM     16  C   UNL     1      -5.449   2.924   0.000  1.00  0.00     0.278 C 
ENDBRANCH   3  15
BRANCH   8  17
ATOM     17  C   UNL     1       2.503   0.373   0.000  1.00  0.00     0.000 A 
ATOM     18  C   UNL     1       3.444   1.541   0.000  1.00  0.00     0.012 A 
ATOM     19  C   UNL     1       3.045  -1.026   0.000  1.00  0.00     0.058 A 
ATOM     20  C   UNL     1       4.926   1.310   0.000  1.00  0.00     0.051 A 
ATOM     21  C   UNL     1       4.527  -1.257   0.000  1.00  0.00     0.166 A 
ATOM     22  C   UNL     1       5.468  -0.088   0.000  1.00  0.00     0.165 A 
ATOM     23  O   UNL     1       5.347  -2.513   0.000  1.00  0.00    -0.454 OA
ATOM     24  O   UNL     1       6.869  -0.622   0.000  1.00  0.00    -0.454 OA
ATOM     25  C   UNL     1       6.795  -2.120   0.000  1.00  0.00     0.468 C 
ENDBRANCH   8  17
TORSDOF 4
