REMARK SMILES C=CCSSSCC=C
REMARK SMILES IDX 5 1 4 2 3 3 2 4 1 5 6 6 7 7 8 8 9 9
REMARK H PARENT
ROOT
ATOM      1  S   UNL     1       0.000  -0.333   0.000  1.00  0.00    -0.024 SA
ENDROOT
BRANCH   1   2
ATOM      2  S   UNL     1      -1.299   0.417   0.000  1.00  0.00    -0.078 SA
BRANCH   2   3
ATOM      3  C   UNL     1      -2.598  -0.333   0.000  1.00  0.00     0.109 C 
BRANCH   3   4
ATOM      4  C   UNL     1      -3.897   0.417   0.000  1.00  0.00    -0.023 C 
ATOM      5  C   UNL     1      -5.196  -0.333   0.000  1.00  0.00     0.005 C 
ENDBRANCH   3   4
ENDBRANCH   2   3
ENDBRANCH   1   2
BRANCH   1   6
ATOM      6  S   UNL     1       1.299   0.417   0.000  1.00  0.00    -0.078 SA
BRANCH   6   7
ATOM      7  C   UNL     1       2.598  -0.333   0.000  1.00  0.00     0.109 C 
BRANCH   7   8
ATOM      8  C   UNL     1       3.897   0.417   0.000  1.00  0.00    -0.023 C 
ATOM      9  C   UNL     1       5.196  -0.333   0.000  1.00  0.00     0.005 C 
ENDBRANCH   7   8
ENDBRANCH   6   7
ENDBRANCH   1   6
TORSDOF 6
