REMARK SMILES CCOC(=O)c1cc(O)c(O)c(O)c1
REMARK SMILES IDX 4 1 5 2 3 3 2 4 1 5 6 6 7 7 14 8 8 9 12 10 10 11 9 12 13 14
REMARK SMILES IDX 11 16
REMARK H PARENT 9 13 13 15 11 17
ROOT
ATOM      1  C   UNL     1      -1.761  -0.701   0.000  1.00  0.00     0.338 C 
ATOM      2  O   UNL     1      -2.193  -2.137   0.000  1.00  0.00    -0.246 OA
ENDROOT
BRANCH   1   3
ATOM      3  O   UNL     1      -2.789   0.391   0.000  1.00  0.00    -0.462 OA
BRANCH   3   4
ATOM      4  C   UNL     1      -4.249   0.047   0.000  1.00  0.00     0.230 C 
ATOM      5  C   UNL     1      -5.277   1.140   0.000  1.00  0.00     0.049 C 
ENDBRANCH   3   4
ENDBRANCH   1   3
BRANCH   1   6
ATOM      6  C   UNL     1      -0.301  -0.357   0.000  1.00  0.00     0.067 A 
ATOM      7  C   UNL     1       0.131   1.079   0.000  1.00  0.00     0.066 A 
ATOM      8  C   UNL     1       0.727  -1.449   0.000  1.00  0.00     0.066 A 
ATOM      9  C   UNL     1       1.591   1.423   0.000  1.00  0.00     0.162 A 
ATOM     10  C   UNL     1       2.187  -1.105   0.000  1.00  0.00     0.162 A 
ATOM     11  C   UNL     1       2.619   0.331   0.000  1.00  0.00     0.200 A 
BRANCH   9  12
ATOM     12  O   UNL     1       2.023   2.860   0.000  1.00  0.00    -0.504 OA
ATOM     13  H   UNL     1       0.000   0.000   0.000  1.00  0.00     0.293 HD
ENDBRANCH   9  12
BRANCH  10  14
ATOM     14  O   UNL     1       3.215  -2.198   0.000  1.00  0.00    -0.504 OA
ATOM     15  H   UNL     1       0.000   0.000   0.000  1.00  0.00     0.293 HD
ENDBRANCH  10  14
BRANCH  11  16
ATOM     16  O   UNL     1       4.079   0.675   0.000  1.00  0.00    -0.502 OA
ATOM     17  H   UNL     1       0.000   0.000   0.000  1.00  0.00     0.293 HD
ENDBRANCH  11  16
ENDBRANCH   1   6
TORSDOF 6
