REMARK SMILES O=c1cc(-c2ccccc2)oc2c1ccc1occc12
REMARK SMILES IDX 1 1 2 2 3 3 4 4 11 5 12 6 13 7 14 8 15 9 16 10 20 11 19 12
REMARK SMILES IDX 18 13 17 14 5 15 6 16 10 17 7 18 9 19 8 20
REMARK H PARENT
ROOT
ATOM      1  O   UNL     1      -0.538   3.881   0.000  1.00  0.00    -0.289 OA
ATOM      2  C   UNL     1      -0.295   2.401   0.000  1.00  0.00     0.193 A 
ATOM      3  C   UNL     1       1.108   1.871   0.000  1.00  0.00     0.100 A 
ATOM      4  C   UNL     1       1.350   0.391   0.000  1.00  0.00     0.138 A 
ATOM      5  O   UNL     1       0.189  -0.559   0.000  1.00  0.00    -0.455 OA
ATOM      6  C   UNL     1      -1.214  -0.029   0.000  1.00  0.00     0.149 A 
ATOM      7  C   UNL     1      -1.456   1.451   0.000  1.00  0.00     0.066 A 
ATOM      8  C   UNL     1      -2.859   1.981   0.000  1.00  0.00     0.020 A 
ATOM      9  C   UNL     1      -4.020   1.031   0.000  1.00  0.00     0.049 A 
ATOM     10  C   UNL     1      -3.778  -0.449   0.000  1.00  0.00     0.137 A 
ATOM     11  C   UNL     1      -2.374  -0.979   0.000  1.00  0.00     0.064 A 
ATOM     12  C   UNL     1      -2.445  -2.478   0.000  1.00  0.00     0.054 A 
ATOM     13  C   UNL     1      -3.892  -2.873   0.000  1.00  0.00     0.196 A 
ATOM     14  O   UNL     1      -4.716  -1.620   0.000  1.00  0.00    -0.464 OA
ENDROOT
BRANCH   4  15
ATOM     15  C   UNL     1       2.753  -0.140   0.000  1.00  0.00     0.017 A 
ATOM     16  C   UNL     1       2.996  -1.620   0.000  1.00  0.00     0.012 A 
ATOM     17  C   UNL     1       3.914   0.810   0.000  1.00  0.00     0.012 A 
ATOM     18  C   UNL     1       4.399  -2.150   0.000  1.00  0.00     0.001 A 
ATOM     19  C   UNL     1       5.317   0.280   0.000  1.00  0.00     0.001 A 
ATOM     20  C   UNL     1       5.560  -1.200   0.000  1.00  0.00     0.000 A 
ENDBRANCH   4  15
TORSDOF 1
