REMARK SMILES C[C@H]1[C@H](C)CC[C@]2(C(=O)O[C@@H]3O[C@H](CO)[C@@H](O)[C@H](O)[C@H]3O)CC[C@]3(C(=O)O)C(=CC[C@@H]4[C@@]5(C)CC[C@H](O)C(C)(C)[C@@H]5CC[C@]43C)[C@H]12
REMARK SMILES IDX 8 1 9 2 7 3 2 4 3 5 46 6 5 7 28 8 6 9 24 10 29 11 22 12
REMARK SMILES IDX 23 13 44 14 30 15 43 16 31 17 42 18 32 19 41 20 34 21 38 22
REMARK SMILES IDX 35 23 36 24 1 25 4 26 45 27 33 28 39 29 40 30 25 31 26 32
REMARK SMILES IDX 27 33 37 35 10 37 11 38 12 39 20 40 13 41 18 42 16 43 21 44
REMARK SMILES IDX 14 46 15 47 19 49 17 51
REMARK H PARENT 27 34 37 36 21 45 15 48 19 50 17 52
ROOT
ATOM      1  C   UNL     1      -3.042  -1.116   0.000  1.00  0.00     0.315 C 
ATOM      2  O   UNL     1      -4.349  -1.852   0.000  1.00  0.00    -0.252 OA
ENDROOT
BRANCH   1   3
ATOM      3  C   UNL     1      -1.751  -1.881   0.000  1.00  0.00     0.075 C 
ATOM      4  C   UNL     1      -0.478  -4.146   0.000  1.00  0.00    -0.003 C 
ATOM      5  C   UNL     1      -1.785  -4.881   0.000  1.00  0.00    -0.011 C 
ATOM      6  C   UNL     1      -0.461  -2.646   0.000  1.00  0.00     0.036 C 
ATOM      7  C   UNL     1      -3.076  -4.116   0.000  1.00  0.00     0.005 C 
ATOM      8  C   UNL     1       0.847  -1.911   0.000  1.00  0.00    -0.052 C 
ATOM      9  C   UNL     1      -3.059  -2.616   0.000  1.00  0.00     0.020 C 
ATOM     10  C   UNL     1       0.864  -0.411   0.000  1.00  0.00     0.095 C 
ATOM     11  C   UNL     1       2.137  -2.675   0.000  1.00  0.00    -0.026 C 
ATOM     12  C   UNL     1      -1.734  -0.381   0.000  1.00  0.00     0.021 C 
ATOM     13  C   UNL     1      -0.427   0.354   0.000  1.00  0.00     0.025 C 
ATOM     14  C   UNL     1       2.171   0.325   0.000  1.00  0.00    -0.009 C 
ATOM     15  C   UNL     1       3.444  -1.940   0.000  1.00  0.00     0.032 C 
ATOM     16  C   UNL     1       2.188   1.825   0.000  1.00  0.00     0.009 C 
ATOM     17  C   UNL     1       3.461  -0.440   0.000  1.00  0.00     0.006 C 
ATOM     18  C   UNL     1       3.495   2.560   0.000  1.00  0.00     0.005 C 
ATOM     19  C   UNL     1       4.769   0.295   0.000  1.00  0.00    -0.025 C 
ATOM     20  C   UNL     1       4.786   1.795   0.000  1.00  0.00     0.003 C 
ATOM     21  C   UNL     1       6.059  -0.470   0.000  1.00  0.00     0.010 C 
ATOM     22  C   UNL     1       6.093   2.530   0.000  1.00  0.00    -0.006 C 
ATOM     23  C   UNL     1       7.367   0.266   0.000  1.00  0.00     0.033 C 
ATOM     24  C   UNL     1       7.384   1.766   0.000  1.00  0.00     0.120 C 
ATOM     25  C   UNL     1       0.812  -4.910   0.000  1.00  0.00     0.008 C 
ATOM     26  C   UNL     1      -1.802  -6.381   0.000  1.00  0.00     0.008 C 
ATOM     27  C   UNL     1       0.881   1.089   0.000  1.00  0.00     0.013 C 
ATOM     28  C   UNL     1       4.752  -1.205   0.000  1.00  0.00     0.012 C 
ATOM     29  C   UNL     1       5.142   3.690   0.000  1.00  0.00     0.014 C 
ATOM     30  C   UNL     1       7.071   3.668   0.000  1.00  0.00     0.014 C 
BRANCH  10  31
ATOM     31  C   UNL     1       2.154  -1.175   0.000  1.00  0.00     0.314 C 
ATOM     32  O   UNL     1       2.338  -1.951   0.000  1.00  0.00    -0.251 OA
BRANCH  31  33
ATOM     33  O   UNL     1       3.600  -0.778   0.000  1.00  0.00    -0.481 OA
ATOM     34  H   UNL     1       0.000   0.000   0.000  1.00  0.00     0.296 HD
ENDBRANCH  31  33
ENDBRANCH  10  31
BRANCH  24  35
ATOM     35  O   UNL     1       8.691   2.501   0.000  1.00  0.00    -0.393 OA
ATOM     36  H   UNL     1       0.000   0.000   0.000  1.00  0.00     0.210 HD
ENDBRANCH  24  35
ENDBRANCH   1   3
BRANCH   1  37
ATOM     37  O   UNL     1      -3.025   0.384   0.000  1.00  0.00    -0.432 OA
BRANCH  37  38
ATOM     38  C   UNL     1      -4.315   1.148   0.000  1.00  0.00     0.342 C 
ATOM     39  O   UNL     1      -4.298   2.648   0.000  1.00  0.00    -0.332 OA
ATOM     40  C   UNL     1      -5.623   0.413   0.000  1.00  0.00     0.214 C 
ATOM     41  C   UNL     1      -5.589   3.413   0.000  1.00  0.00     0.179 C 
ATOM     42  C   UNL     1      -6.913   1.178   0.000  1.00  0.00     0.180 C 
ATOM     43  C   UNL     1      -6.896   2.678   0.000  1.00  0.00     0.177 C 
BRANCH  40  44
ATOM     44  O   UNL     1      -5.640  -1.087   0.000  1.00  0.00    -0.384 OA
ATOM     45  H   UNL     1       0.000   0.000   0.000  1.00  0.00     0.211 HD
ENDBRANCH  40  44
BRANCH  41  46
ATOM     46  C   UNL     1      -5.572   4.913   0.000  1.00  0.00     0.191 C 
BRANCH  46  47
ATOM     47  O   UNL     1      -4.264   5.648   0.000  1.00  0.00    -0.394 OA
ATOM     48  H   UNL     1       0.000   0.000   0.000  1.00  0.00     0.210 HD
ENDBRANCH  46  47
ENDBRANCH  41  46
BRANCH  42  49
ATOM     49  O   UNL     1      -8.221   0.443   0.000  1.00  0.00    -0.387 OA
ATOM     50  H   UNL     1       0.000   0.000   0.000  1.00  0.00     0.211 HD
ENDBRANCH  42  49
BRANCH  43  51
ATOM     51  O   UNL     1      -8.187   3.442   0.000  1.00  0.00    -0.387 OA
ATOM     52  H   UNL     1       0.000   0.000   0.000  1.00  0.00     0.211 HD
ENDBRANCH  43  51
ENDBRANCH  37  38
ENDBRANCH   1  37
TORSDOF 11
