REMARK SMILES CC(=O)Oc1c(C(C)C)cc2c(c1OC(C)=O)C13CCCC(C)(C)C1CC2OC3
REMARK SMILES IDX 5 1 6 2 10 3 11 4 12 5 13 6 18 7 19 8 20 9 21 10 22 11 23 12
REMARK SMILES IDX 24 13 25 14 26 15 27 16 28 17 29 18 4 19 2 20 1 21 3 22 7 23
REMARK SMILES IDX 8 24 9 25 14 26 15 27 16 28 17 29
REMARK H PARENT
ROOT
ATOM      1  C   UNL     1      -2.553   0.151   0.000  1.00  0.00     0.177 A 
ATOM      2  C   UNL     1      -2.741   1.639   0.000  1.00  0.00     0.002 A 
ATOM      3  C   UNL     1      -1.547   2.546   0.000  1.00  0.00     0.014 A 
ATOM      4  C   UNL     1      -0.164   1.965   0.000  1.00  0.00    -0.011 A 
ATOM      5  C   UNL     1       0.024   0.477   0.000  1.00  0.00     0.013 A 
ATOM      6  C   UNL     1      -1.170  -0.430   0.000  1.00  0.00     0.178 A 
ATOM      7  C   UNL     1       1.407  -0.104   0.000  1.00  0.00     0.026 C 
ATOM      8  C   UNL     1       1.596  -1.592   0.000  1.00  0.00     0.015 C 
ATOM      9  C   UNL     1       2.979  -2.173   0.000  1.00  0.00     0.002 C 
ATOM     10  C   UNL     1       4.173  -1.266   0.000  1.00  0.00     0.007 C 
ATOM     11  C   UNL     1       3.985   0.222   0.000  1.00  0.00    -0.032 C 
ATOM     12  C   UNL     1       4.317   1.685   0.000  1.00  0.00     0.011 C 
ATOM     13  C   UNL     1       5.483   0.149   0.000  1.00  0.00     0.011 C 
ATOM     14  C   UNL     1       2.602   0.803   0.000  1.00  0.00     0.011 C 
ATOM     15  C   UNL     1       2.413   2.291   0.000  1.00  0.00     0.042 C 
ATOM     16  C   UNL     1       1.031   2.872   0.000  1.00  0.00     0.149 C 
ATOM     17  O   UNL     1       2.413   2.291   0.000  1.00  0.00    -0.373 OA
ATOM     18  C   UNL     1       2.602   0.803   0.000  1.00  0.00     0.173 C 
ENDROOT
BRANCH   1  19
ATOM     19  O   UNL     1      -3.748  -0.757   0.000  1.00  0.00    -0.422 OA
BRANCH  19  20
ATOM     20  C   UNL     1      -3.559  -2.245   0.000  1.00  0.00     0.308 C 
ATOM     21  C   UNL     1      -4.754  -3.152   0.000  1.00  0.00     0.139 C 
ATOM     22  O   UNL     1      -2.176  -2.826   0.000  1.00  0.00    -0.252 OA
ENDBRANCH  19  20
ENDBRANCH   1  19
BRANCH   2  23
ATOM     23  C   UNL     1      -4.124   2.220   0.000  1.00  0.00     0.017 C 
ATOM     24  C   UNL     1      -4.313   3.708   0.000  1.00  0.00     0.012 C 
ATOM     25  C   UNL     1      -5.319   1.312   0.000  1.00  0.00     0.012 C 
ENDBRANCH   2  23
BRANCH   6  26
ATOM     26  O   UNL     1      -0.982  -1.919   0.000  1.00  0.00    -0.422 OA
BRANCH  26  27
ATOM     27  C   UNL     1       0.401  -2.499   0.000  1.00  0.00     0.308 C 
ATOM     28  C   UNL     1       0.590  -3.987   0.000  1.00  0.00     0.139 C 
ATOM     29  O   UNL     1       1.134  -2.185   0.000  1.00  0.00    -0.252 OA
ENDBRANCH  26  27
ENDBRANCH   6  26
TORSDOF 5
