REMARK SMILES CC(C)=CCc1c(O)cc2c(c1O)C(=O)C[C@@H](c1ccccc1)O2
REMARK SMILES IDX 5 1 4 2 2 3 1 4 3 5 6 6 7 7 12 8 9 9 11 10 10 11 14 12 24 13
REMARK SMILES IDX 16 14 17 15 15 16 8 17 13 19 18 21 19 22 23 23 20 24 22 25
REMARK SMILES IDX 21 26
REMARK H PARENT 8 18 13 20
ROOT
ATOM      1  C   UNL     1      -4.109  -0.753   0.000  1.00  0.00     0.070 C 
ENDROOT
BRANCH   1   2
ATOM      2  C   UNL     1      -4.788   0.585   0.000  1.00  0.00    -0.023 C 
BRANCH   2   3
ATOM      3  C   UNL     1      -6.286   0.666   0.000  1.00  0.00    -0.080 C 
ATOM      4  C   UNL     1      -6.964   2.004   0.000  1.00  0.00     0.039 C 
ATOM      5  C   UNL     1      -7.105  -0.590   0.000  1.00  0.00     0.039 C 
ENDBRANCH   2   3
ENDBRANCH   1   2
BRANCH   1   6
ATOM      6  C   UNL     1      -2.611  -0.834   0.000  1.00  0.00     0.040 A 
ATOM      7  C   UNL     1      -1.933  -2.172   0.000  1.00  0.00     0.126 A 
ATOM      8  C   UNL     1      -1.792   0.422   0.000  1.00  0.00     0.137 A 
ATOM      9  C   UNL     1      -0.435  -2.253   0.000  1.00  0.00     0.094 A 
ATOM     10  C   UNL     1      -0.294   0.341   0.000  1.00  0.00     0.102 A 
ATOM     11  C   UNL     1       0.384  -0.997   0.000  1.00  0.00     0.138 A 
ATOM     12  C   UNL     1       0.525   1.598   0.000  1.00  0.00     0.174 C 
ATOM     13  O   UNL     1       1.882  -1.078   0.000  1.00  0.00    -0.484 OA
ATOM     14  C   UNL     1       2.023   1.516   0.000  1.00  0.00     0.131 C 
ATOM     15  C   UNL     1       2.701   0.179   0.000  1.00  0.00     0.211 C 
ATOM     16  O   UNL     1      -0.154   2.936   0.000  1.00  0.00    -0.294 OA
BRANCH   7  17
ATOM     17  O   UNL     1      -2.752  -3.428   0.000  1.00  0.00    -0.507 OA
ATOM     18  H   UNL     1       0.000   0.000   0.000  1.00  0.00     0.293 HD
ENDBRANCH   7  17
BRANCH   8  19
ATOM     19  O   UNL     1      -2.471   1.760   0.000  1.00  0.00    -0.507 OA
ATOM     20  H   UNL     1       0.000   0.000   0.000  1.00  0.00     0.293 HD
ENDBRANCH   8  19
BRANCH  15  21
ATOM     21  C   UNL     1       4.199   0.097   0.000  1.00  0.00    -0.007 A 
ATOM     22  C   UNL     1       4.877  -1.240   0.000  1.00  0.00     0.007 A 
ATOM     23  C   UNL     1       5.018   1.354   0.000  1.00  0.00     0.007 A 
ATOM     24  C   UNL     1       6.375  -1.322   0.000  1.00  0.00     0.000 A 
ATOM     25  C   UNL     1       6.516   1.273   0.000  1.00  0.00     0.000 A 
ATOM     26  C   UNL     1       7.194  -0.065   0.000  1.00  0.00     0.000 A 
ENDBRANCH  15  21
ENDBRANCH   1   6
TORSDOF 6
