REMARK SMILES CC1(C)O[C@H]1[C@H]1C[C@@H]([C@@H]2CC[C@]34C[C@]23CC[C@@H]2[C@@]3(C)CCC(=O)C(C)(C)[C@@H]3C[C@@H](O)[C@]24C)C(O)O1
REMARK SMILES IDX 9 1 10 2 11 3 12 4 13 5 14 6 15 7 16 8 17 9 18 10 19 11
REMARK SMILES IDX 20 12 21 13 22 14 23 15 24 16 25 17 26 18 27 19 28 20 29 21
REMARK SMILES IDX 31 22 32 23 8 24 6 25 7 26 35 27 33 28 5 29 2 30 4 31 1 32
REMARK SMILES IDX 3 33 34 34 30 36
REMARK H PARENT 34 35 30 37
ROOT
ATOM      1  C   UNL     1      -2.106   0.634   0.000  1.00  0.00     0.004 C 
ATOM      2  C   UNL     1      -1.995   2.130   0.000  1.00  0.00     0.005 C 
ATOM      3  C   UNL     1      -0.538   2.487   0.000  1.00  0.00     0.008 C 
ATOM      4  C   UNL     1       0.252   1.211   0.000  1.00  0.00    -0.015 C 
ATOM      5  C   UNL     1       0.759  -0.200   0.000  1.00  0.00     0.016 C 
ATOM      6  C   UNL     1      -0.717   0.066   0.000  1.00  0.00    -0.020 C 
ATOM      7  C   UNL     1      -0.210  -1.345   0.000  1.00  0.00     0.008 C 
ATOM      8  C   UNL     1       1.266  -1.612   0.000  1.00  0.00     0.005 C 
ATOM      9  C   UNL     1       2.235  -0.467   0.000  1.00  0.00     0.004 C 
ATOM     10  C   UNL     1       3.711  -0.734   0.000  1.00  0.00    -0.025 C 
ATOM     11  C   UNL     1       2.742  -1.879   0.000  1.00  0.00     0.012 C 
ATOM     12  C   UNL     1       4.218  -2.146   0.000  1.00  0.00     0.015 C 
ATOM     13  C   UNL     1       5.694  -2.412   0.000  1.00  0.00     0.077 C 
ATOM     14  C   UNL     1       6.663  -1.267   0.000  1.00  0.00     0.138 C 
ATOM     15  O   UNL     1       8.139  -1.534   0.000  1.00  0.00    -0.299 OA
ATOM     16  C   UNL     1       6.156   0.144   0.000  1.00  0.00     0.027 C 
ATOM     17  C   UNL     1       6.163   1.645   0.000  1.00  0.00     0.020 C 
ATOM     18  C   UNL     1       7.635   0.399   0.000  1.00  0.00     0.020 C 
ATOM     19  C   UNL     1       4.680   0.411   0.000  1.00  0.00     0.011 C 
ATOM     20  C   UNL     1       4.173   1.823   0.000  1.00  0.00     0.037 C 
ATOM     21  C   UNL     1       2.697   2.090   0.000  1.00  0.00     0.121 C 
ATOM     22  C   UNL     1       1.728   0.945   0.000  1.00  0.00     0.003 C 
ATOM     23  C   UNL     1       1.221   2.356   0.000  1.00  0.00     0.015 C 
ENDROOT
BRANCH   1  24
ATOM     24  C   UNL     1      -3.381  -0.155   0.000  1.00  0.00     0.052 C 
ATOM     25  C   UNL     1      -5.738  -0.733   0.000  1.00  0.00     0.153 C 
ATOM     26  C   UNL     1      -4.769   0.412   0.000  1.00  0.00     0.044 C 
ATOM     27  O   UNL     1      -4.949  -2.008   0.000  1.00  0.00    -0.347 OA
ATOM     28  C   UNL     1      -3.492  -1.651   0.000  1.00  0.00     0.250 C 
BRANCH  25  29
ATOM     29  C   UNL     1      -7.234  -0.622   0.000  1.00  0.00     0.179 C 
ATOM     30  C   UNL     1      -8.474   0.222   0.000  1.00  0.00     0.092 C 
ATOM     31  O   UNL     1      -8.585  -1.274   0.000  1.00  0.00    -0.364 OA
ATOM     32  C   UNL     1      -9.928   0.591   0.000  1.00  0.00     0.045 C 
ATOM     33  C   UNL     1      -7.858   1.590   0.000  1.00  0.00     0.045 C 
ENDBRANCH  25  29
BRANCH  28  34
ATOM     34  O   UNL     1      -2.347  -2.620   0.000  1.00  0.00    -0.368 OA
ATOM     35  H   UNL     1       0.000   0.000   0.000  1.00  0.00     0.213 HD
ENDBRANCH  28  34
ENDBRANCH   1  24
BRANCH  21  36
ATOM     36  O   UNL     1       2.190   3.501   0.000  1.00  0.00    -0.393 OA
ATOM     37  H   UNL     1       0.000   0.000   0.000  1.00  0.00     0.210 HD
ENDBRANCH  21  36
TORSDOF 4
