REMARK SMILES CCCCCCC
REMARK SMILES IDX 4 1 3 2 2 3 1 4 5 5 6 6 7 7
REMARK H PARENT
ROOT
ATOM      1  C   UNL     1       0.000   0.429   0.000  1.00  0.00    -0.000 C 
ENDROOT
BRANCH   1   2
ATOM      2  C   UNL     1      -1.299  -0.321   0.000  1.00  0.00    -0.000 C 
BRANCH   2   3
ATOM      3  C   UNL     1      -2.598   0.429   0.000  1.00  0.00    -0.003 C 
ATOM      4  C   UNL     1      -3.897  -0.321   0.000  1.00  0.00     0.004 C 
ENDBRANCH   2   3
ENDBRANCH   1   2
BRANCH   1   5
ATOM      5  C   UNL     1       1.299  -0.321   0.000  1.00  0.00    -0.000 C 
BRANCH   5   6
ATOM      6  C   UNL     1       2.598   0.429   0.000  1.00  0.00    -0.003 C 
ATOM      7  C   UNL     1       3.897  -0.321   0.000  1.00  0.00     0.004 C 
ENDBRANCH   5   6
ENDBRANCH   1   5
TORSDOF 4
