REMARK SMILES COC(=O)c1cc2c(c(CC=C(C)C)c1)O[C@@](C)(CCC=C(C)C)C=C2
REMARK SMILES IDX 5 1 6 2 7 3 8 4 16 5 17 6 18 7 25 8 26 9 9 10 15 11 3 12
REMARK SMILES IDX 4 13 2 14 1 15 10 16 11 17 12 18 13 19 14 20 19 21 20 22
REMARK SMILES IDX 21 23 22 24 23 25 24 26
REMARK H PARENT
ROOT
ATOM      1  C   UNL     1      -3.191  -0.378   0.000  1.00  0.00     0.061 A 
ATOM      2  C   UNL     1      -3.104   1.119   0.000  1.00  0.00     0.027 A 
ATOM      3  C   UNL     1      -1.764   1.793   0.000  1.00  0.00     0.018 A 
ATOM      4  C   UNL     1      -0.510   0.969   0.000  1.00  0.00     0.131 A 
ATOM      5  O   UNL     1       0.830   1.642   0.000  1.00  0.00    -0.483 OA
ATOM      6  C   UNL     1       0.917   3.140   0.000  1.00  0.00     0.125 C 
ATOM      7  C   UNL     1       1.510   4.517   0.000  1.00  0.00     0.061 C 
ATOM      8  C   UNL     1      -0.337   3.964   0.000  1.00  0.00     0.021 C 
ATOM      9  C   UNL     1      -1.677   3.290   0.000  1.00  0.00     0.012 C 
ATOM     10  C   UNL     1      -0.597  -0.529   0.000  1.00  0.00    -0.001 A 
ATOM     11  C   UNL     1      -1.938  -1.202   0.000  1.00  0.00     0.023 A 
ENDROOT
BRANCH   1  12
ATOM     12  C   UNL     1      -4.531  -1.052   0.000  1.00  0.00     0.337 C 
ATOM     13  O   UNL     1      -4.618  -2.549   0.000  1.00  0.00    -0.246 OA
BRANCH  12  14
ATOM     14  O   UNL     1      -5.785  -0.228   0.000  1.00  0.00    -0.465 OA
ATOM     15  C   UNL     1      -7.125  -0.901   0.000  1.00  0.00     0.282 C 
ENDBRANCH  12  14
ENDBRANCH   1  12
BRANCH  10  16
ATOM     16  C   UNL     1       0.656  -1.353   0.000  1.00  0.00     0.066 C 
BRANCH  16  17
ATOM     17  C   UNL     1       0.569  -2.850   0.000  1.00  0.00    -0.023 C 
BRANCH  17  18
ATOM     18  C   UNL     1       1.823  -3.674   0.000  1.00  0.00    -0.080 C 
ATOM     19  C   UNL     1       1.736  -5.171   0.000  1.00  0.00     0.039 C 
ATOM     20  C   UNL     1       3.163  -3.001   0.000  1.00  0.00     0.039 C 
ENDBRANCH  17  18
ENDBRANCH  16  17
ENDBRANCH  10  16
BRANCH   6  21
ATOM     21  C   UNL     1       2.376   2.794   0.000  1.00  0.00     0.057 C 
BRANCH  21  22
ATOM     22  C   UNL     1       2.807   1.357   0.000  1.00  0.00     0.032 C 
BRANCH  22  23
ATOM     23  C   UNL     1       4.267   1.012   0.000  1.00  0.00    -0.028 C 
BRANCH  23  24
ATOM     24  C   UNL     1       4.697  -0.425   0.000  1.00  0.00    -0.080 C 
ATOM     25  C   UNL     1       6.157  -0.771   0.000  1.00  0.00     0.039 C 
ATOM     26  C   UNL     1       3.668  -1.516   0.000  1.00  0.00     0.039 C 
ENDBRANCH  23  24
ENDBRANCH  22  23
ENDBRANCH  21  22
ENDBRANCH   6  21
TORSDOF 9
