REMARK SMILES C=C1C[C@@]23CC[C@@H]4C(C)(C)CCC[C@@]4(C)[C@]2(O)[C@H](O)C[C@@H]1C3
REMARK SMILES IDX 1 1 2 2 3 3 4 4 5 5 6 6 7 7 8 8 9 9 10 10 11 11 12 12 13 13
REMARK SMILES IDX 14 14 15 15 16 16 18 17 20 18 21 19 22 20 17 21 19 23
REMARK H PARENT 17 22 19 24
ROOT
ATOM      1  C   UNL     1      -4.964  -1.534   0.000  1.00  0.00     0.008 C 
ATOM      2  C   UNL     1      -3.583  -0.948   0.000  1.00  0.00    -0.074 C 
ATOM      3  C   UNL     1      -2.297  -1.721   0.000  1.00  0.00     0.040 C 
ATOM      4  C   UNL     1      -1.165  -0.737   0.000  1.00  0.00     0.007 C 
ATOM      5  C   UNL     1      -0.438  -2.049   0.000  1.00  0.00     0.011 C 
ATOM      6  C   UNL     1       1.062  -2.076   0.000  1.00  0.00     0.005 C 
ATOM      7  C   UNL     1       1.835  -0.791   0.000  1.00  0.00     0.004 C 
ATOM      8  C   UNL     1       3.334  -0.817   0.000  1.00  0.00    -0.032 C 
ATOM      9  C   UNL     1       4.734  -1.355   0.000  1.00  0.00     0.011 C 
ATOM     10  C   UNL     1       3.048  -2.290   0.000  1.00  0.00     0.011 C 
ATOM     11  C   UNL     1       4.107   0.468   0.000  1.00  0.00     0.007 C 
ATOM     12  C   UNL     1       3.381   1.780   0.000  1.00  0.00     0.001 C 
ATOM     13  C   UNL     1       1.881   1.807   0.000  1.00  0.00     0.010 C 
ATOM     14  C   UNL     1       1.108   0.521   0.000  1.00  0.00     0.003 C 
ATOM     15  C   UNL     1       0.381   1.834   0.000  1.00  0.00     0.015 C 
ATOM     16  C   UNL     1      -0.392   0.548   0.000  1.00  0.00     0.102 C 
ATOM     17  C   UNL     1      -1.119   1.860   0.000  1.00  0.00     0.148 C 
ATOM     18  C   UNL     1      -2.619   1.887   0.000  1.00  0.00     0.043 C 
ATOM     19  C   UNL     1      -3.392   0.602   0.000  1.00  0.00     0.018 C 
ATOM     20  C   UNL     1      -2.665  -0.711   0.000  1.00  0.00     0.018 C 
ENDROOT
BRANCH  16  21
ATOM     21  O   UNL     1      -1.892   0.575   0.000  1.00  0.00    -0.386 OA
ATOM     22  H   UNL     1       0.000   0.000   0.000  1.00  0.00     0.211 HD
ENDBRANCH  16  21
BRANCH  17  23
ATOM     23  O   UNL     1      -0.346   3.146   0.000  1.00  0.00    -0.390 OA
ATOM     24  H   UNL     1       0.000   0.000   0.000  1.00  0.00     0.211 HD
ENDBRANCH  17  23
TORSDOF 2
