REMARK SMILES O=C1CCCC2[C@@H]3C[C@@H](CN12)C1CCCCN1C3
REMARK SMILES IDX 1 1 2 2 3 3 4 4 5 5 6 6 7 7 8 8 9 9 10 10 11 11 12 12 13 13
REMARK SMILES IDX 14 14 15 15 16 16 17 17 18 18
REMARK H PARENT
ROOT
ATOM      1  O   UNL     1      -3.624  -2.465   0.000  1.00  0.00    -0.275 OA
ATOM      2  C   UNL     1      -3.312  -0.998   0.000  1.00  0.00     0.222 C 
ATOM      3  C   UNL     1      -4.426   0.006   0.000  1.00  0.00     0.100 C 
ATOM      4  C   UNL     1      -4.113   1.473   0.000  1.00  0.00     0.012 C 
ATOM      5  C   UNL     1      -2.687   1.936   0.000  1.00  0.00     0.026 C 
ATOM      6  C   UNL     1      -1.572   0.931   0.000  1.00  0.00     0.089 C 
ATOM      7  C   UNL     1      -0.146   1.394   0.000  1.00  0.00     0.026 C 
ATOM      8  C   UNL     1      -0.458  -0.073   0.000  1.00  0.00     0.014 C 
ATOM      9  C   UNL     1       0.656  -1.077   0.000  1.00  0.00     0.026 C 
ATOM     10  C   UNL     1      -0.771  -1.540   0.000  1.00  0.00     0.125 C 
ATOM     11  N   UNL     1      -1.885  -0.535   0.000  1.00  0.00    -0.339 N 
ATOM     12  C   UNL     1       2.083  -0.614   0.000  1.00  0.00     0.061 C 
ATOM     13  C   UNL     1       3.197  -1.619   0.000  1.00  0.00     0.019 C 
ATOM     14  C   UNL     1       4.624  -1.156   0.000  1.00  0.00     0.003 C 
ATOM     15  C   UNL     1       4.936   0.311   0.000  1.00  0.00     0.016 C 
ATOM     16  C   UNL     1       3.822   1.316   0.000  1.00  0.00     0.085 C 
ATOM     17  N   UNL     1       2.395   0.853   0.000  1.00  0.00    -0.300 NA
ATOM     18  C   UNL     1       1.281   1.857   0.000  1.00  0.00     0.090 C 
ENDROOT
TORSDOF 0
