REMARK SMILES CC(C)(O)[C@@H]1CC[C@@](C)([C@H]2CC[C@]3(C)[C@@H]2CC[C@@H]2[C@@]4(C)CC/C(=N\O)C(C)(C)[C@@H]4CC[C@]23C)O1
REMARK SMILES IDX 10 1 11 2 12 3 13 4 14 5 15 6 16 7 17 8 18 9 19 10 20 11
REMARK SMILES IDX 21 12 22 13 23 14 26 15 27 16 28 17 29 18 30 19 31 20 32 21
REMARK SMILES IDX 33 22 8 23 5 24 6 25 34 26 7 27 9 28 2 29 1 30 3 31 4 32
REMARK SMILES IDX 24 34 25 35
REMARK H PARENT 4 33 25 36
ROOT
ATOM      1  C   UNL     1       2.726   0.079   0.000  1.00  0.00     0.025 C 
ATOM      2  C   UNL     1       2.873  -1.413   0.000  1.00  0.00     0.007 C 
ATOM      3  C   UNL     1       1.499  -2.015   0.000  1.00  0.00     0.008 C 
ATOM      4  C   UNL     1       0.503  -0.894   0.000  1.00  0.00    -0.024 C 
ATOM      5  C   UNL     1      -0.116  -2.261   0.000  1.00  0.00     0.012 C 
ATOM      6  C   UNL     1       1.261   0.400   0.000  1.00  0.00     0.001 C 
ATOM      7  C   UNL     1       0.519   1.704   0.000  1.00  0.00     0.005 C 
ATOM      8  C   UNL     1      -0.981   1.713   0.000  1.00  0.00     0.005 C 
ATOM      9  C   UNL     1      -1.739   0.419   0.000  1.00  0.00     0.002 C 
ATOM     10  C   UNL     1      -3.239   0.428   0.000  1.00  0.00    -0.025 C 
ATOM     11  C   UNL     1      -2.481   1.722   0.000  1.00  0.00     0.012 C 
ATOM     12  C   UNL     1      -3.981   1.732   0.000  1.00  0.00     0.013 C 
ATOM     13  C   UNL     1      -5.481   1.741   0.000  1.00  0.00     0.056 C 
ATOM     14  C   UNL     1      -6.239   0.447   0.000  1.00  0.00     0.063 C 
ATOM     15  C   UNL     1      -5.497  -0.857   0.000  1.00  0.00     0.010 C 
ATOM     16  C   UNL     1      -5.246  -2.336   0.000  1.00  0.00     0.018 C 
ATOM     17  C   UNL     1      -6.910  -1.361   0.000  1.00  0.00     0.018 C 
ATOM     18  C   UNL     1      -3.997  -0.866   0.000  1.00  0.00     0.007 C 
ATOM     19  C   UNL     1      -3.255  -2.170   0.000  1.00  0.00     0.006 C 
ATOM     20  C   UNL     1      -1.755  -2.179   0.000  1.00  0.00     0.008 C 
ATOM     21  C   UNL     1      -0.997  -0.885   0.000  1.00  0.00    -0.024 C 
ATOM     22  C   UNL     1      -0.239   0.409   0.000  1.00  0.00     0.012 C 
ENDROOT
BRANCH   1  23
ATOM     23  C   UNL     1       3.847   1.076   0.000  1.00  0.00     0.069 C 
ATOM     24  C   UNL     1       6.151   0.312   0.000  1.00  0.00     0.150 C 
ATOM     25  C   UNL     1       6.160   1.812   0.000  1.00  0.00     0.038 C 
ATOM     26  O   UNL     1       4.721  -0.143   0.000  1.00  0.00    -0.369 OA
ATOM     27  C   UNL     1       4.736   2.284   0.000  1.00  0.00     0.038 C 
ATOM     28  C   UNL     1       2.738   2.087   0.000  1.00  0.00     0.042 C 
BRANCH  24  29
ATOM     29  C   UNL     1       7.359  -0.578   0.000  1.00  0.00     0.085 C 
ATOM     30  C   UNL     1       8.248   0.630   0.000  1.00  0.00     0.044 C 
ATOM     31  C   UNL     1       6.469  -1.786   0.000  1.00  0.00     0.044 C 
BRANCH  29  32
ATOM     32  O   UNL     1       8.566  -1.467   0.000  1.00  0.00    -0.388 OA
ATOM     33  H   UNL     1       0.000   0.000   0.000  1.00  0.00     0.211 HD
ENDBRANCH  29  32
ENDBRANCH  24  29
ENDBRANCH   1  23
BRANCH  14  34
ATOM     34  N   UNL     1      -7.739   0.456   0.000  1.00  0.00    -0.098 NA
BRANCH  34  35
ATOM     35  O   UNL     1      -8.481   1.760   0.000  1.00  0.00    -0.411 OA
ATOM     36  H   UNL     1       0.000   0.000   0.000  1.00  0.00     0.330 HD
ENDBRANCH  34  35
ENDBRANCH  14  34
TORSDOF 5
