REMARK SMILES COc1cc2c(cc1C=CC(=O)N1CCCC1)OCO2
REMARK SMILES IDX 9 1 8 2 3 3 4 4 5 5 7 6 6 7 20 8 18 9 19 10 2 11 1 12 10 13
REMARK SMILES IDX 11 14 13 15 14 16 17 17 15 18 16 19 12 20
REMARK H PARENT
ROOT
ATOM      1  C   UNL     1       0.291   1.162   0.000  1.00  0.00     0.018 C 
ENDROOT
BRANCH   1   2
ATOM      2  C   UNL     1      -1.091   0.579   0.000  1.00  0.00     0.021 A 
ATOM      3  C   UNL     1      -2.287   1.484   0.000  1.00  0.00     0.130 A 
ATOM      4  C   UNL     1      -3.669   0.900   0.000  1.00  0.00     0.097 A 
ATOM      5  C   UNL     1      -3.854  -0.588   0.000  1.00  0.00     0.169 A 
ATOM      6  C   UNL     1      -1.276  -0.910   0.000  1.00  0.00     0.062 A 
ATOM      7  C   UNL     1      -2.658  -1.493   0.000  1.00  0.00     0.166 A 
ATOM      8  O   UNL     1      -5.085  -1.446   0.000  1.00  0.00    -0.453 OA
ATOM      9  O   UNL     1      -3.149  -2.911   0.000  1.00  0.00    -0.454 OA
ATOM     10  C   UNL     1      -4.649  -2.881   0.000  1.00  0.00     0.468 C 
BRANCH   3  11
ATOM     11  O   UNL     1      -2.101   2.972   0.000  1.00  0.00    -0.496 OA
ATOM     12  C   UNL     1      -3.297   3.877   0.000  1.00  0.00     0.278 C 
ENDBRANCH   3  11
ENDBRANCH   1   2
BRANCH   1  13
ATOM     13  C   UNL     1       1.487   0.257   0.000  1.00  0.00     0.072 C 
BRANCH  13  14
ATOM     14  C   UNL     1       2.869   0.841   0.000  1.00  0.00     0.246 C 
ATOM     15  N   UNL     1       4.066  -0.064   0.000  1.00  0.00    -0.339 N 
ATOM     16  C   UNL     1       5.501   0.371   0.000  1.00  0.00     0.120 C 
ATOM     17  C   UNL     1       4.036  -1.564   0.000  1.00  0.00     0.120 C 
ATOM     18  C   UNL     1       6.359  -0.859   0.000  1.00  0.00     0.023 C 
ATOM     19  C   UNL     1       5.454  -2.055   0.000  1.00  0.00     0.023 C 
ATOM     20  O   UNL     1       3.055   2.329   0.000  1.00  0.00    -0.270 OA
ENDBRANCH  13  14
ENDBRANCH   1  13
TORSDOF 4
