REMARK SMILES C=C(CCl)[C@@H]1CC[C@@]2(C)OC3=C(C[C@@H]12)C(=O)[C@]1(O)CO[C@H]3C1
REMARK SMILES IDX 5 1 6 2 7 3 8 4 9 5 10 6 11 7 12 8 13 9 14 10 15 11 16 12
REMARK SMILES IDX 17 13 19 14 20 15 21 16 22 17 2 18 1 19 3 20 4 21 18 22
REMARK H PARENT 18 23
ROOT
ATOM      1  C   UNL     1       2.937   0.378   0.000  1.00  0.00     0.023 C 
ATOM      2  C   UNL     1       3.442   1.790   0.000  1.00  0.00     0.012 C 
ATOM      3  C   UNL     1       2.254   2.707   0.000  1.00  0.00     0.049 C 
ATOM      4  C   UNL     1       1.016   1.861   0.000  1.00  0.00     0.110 C 
ATOM      5  C   UNL     1       0.747   3.337   0.000  1.00  0.00     0.057 C 
ATOM      6  O   UNL     1      -0.442   2.216   0.000  1.00  0.00    -0.488 OA
ATOM      7  C   UNL     1      -1.478   1.131   0.000  1.00  0.00     0.133 C 
ATOM      8  C   UNL     1      -1.056  -0.309   0.000  1.00  0.00     0.039 C 
ATOM      9  C   UNL     1       0.401  -0.663   0.000  1.00  0.00     0.051 C 
ATOM     10  C   UNL     1       1.437   0.421   0.000  1.00  0.00     0.045 C 
ATOM     11  C   UNL     1      -2.092  -1.393   0.000  1.00  0.00     0.196 C 
ATOM     12  O   UNL     1      -1.671  -2.833   0.000  1.00  0.00    -0.291 OA
ATOM     13  C   UNL     1      -3.550  -1.039   0.000  1.00  0.00     0.153 C 
ATOM     14  C   UNL     1      -4.826  -0.251   0.000  1.00  0.00     0.205 C 
ATOM     15  O   UNL     1      -4.471   1.206   0.000  1.00  0.00    -0.367 OA
ATOM     16  C   UNL     1      -2.976   1.319   0.000  1.00  0.00     0.187 C 
ATOM     17  C   UNL     1      -2.406  -0.068   0.000  1.00  0.00     0.086 C 
ENDROOT
BRANCH   1  18
ATOM     18  C   UNL     1       3.782  -0.861   0.000  1.00  0.00    -0.059 C 
ATOM     19  C   UNL     1       5.278  -0.748   0.000  1.00  0.00     0.009 C 
BRANCH  18  20
ATOM     20  C   UNL     1       3.132  -2.213   0.000  1.00  0.00     0.140 C 
ATOM     21  Cl  UNL     1       3.978  -3.452   0.000  1.00  0.00    -0.122 Cl
ENDBRANCH  18  20
ENDBRANCH   1  18
BRANCH  13  22
ATOM     22  O   UNL     1      -3.437  -2.535   0.000  1.00  0.00    -0.379 OA
ATOM     23  H   UNL     1       0.000   0.000   0.000  1.00  0.00     0.212 HD
ENDBRANCH  13  22
TORSDOF 3
