REMARK SMILES COC(=O)C1=CO[C@@H](C)[C@@H]2CN3CCc4c([nH]c5ccc(OC)cc45)[C@@H]3C[C@H]12
REMARK SMILES IDX 5 1 6 2 7 3 8 4 9 5 10 6 11 7 12 8 13 9 14 10 15 11 16 12
REMARK SMILES IDX 17 13 18 14 19 15 20 16 21 17 24 18 25 19 26 20 27 21 28 22
REMARK SMILES IDX 3 24 4 25 2 26 1 27 22 28 23 29
REMARK H PARENT 17 23
ROOT
ATOM      1  C   UNL     1      -4.023  -0.891   0.000  1.00  0.00     0.075 C 
ATOM      2  C   UNL     1      -5.446  -0.415   0.000  1.00  0.00     0.198 C 
ATOM      3  O   UNL     1      -5.745   1.054   0.000  1.00  0.00    -0.497 OA
ATOM      4  C   UNL     1      -4.622   2.049   0.000  1.00  0.00     0.174 C 
ATOM      5  C   UNL     1      -4.921   3.519   0.000  1.00  0.00     0.053 C 
ATOM      6  C   UNL     1      -3.199   1.573   0.000  1.00  0.00     0.052 C 
ATOM      7  C   UNL     1      -2.076   2.567   0.000  1.00  0.00     0.093 C 
ATOM      8  N   UNL     1      -0.654   2.092   0.000  1.00  0.00    -0.294 NA
ATOM      9  C   UNL     1       0.470   3.086   0.000  1.00  0.00     0.090 C 
ATOM     10  C   UNL     1       1.892   2.610   0.000  1.00  0.00     0.053 C 
ATOM     11  C   UNL     1       2.192   1.140   0.000  1.00  0.00    -0.016 A 
ATOM     12  C   UNL     1       1.068   0.146   0.000  1.00  0.00     0.037 A 
ATOM     13  N   UNL     1       1.667  -1.229   0.000  1.00  0.00    -0.357 N 
ATOM     14  C   UNL     1       3.160  -1.085   0.000  1.00  0.00     0.046 A 
ATOM     15  C   UNL     1       4.266  -2.098   0.000  1.00  0.00     0.030 A 
ATOM     16  C   UNL     1       5.697  -1.647   0.000  1.00  0.00     0.048 A 
ATOM     17  C   UNL     1       6.021  -0.182   0.000  1.00  0.00     0.119 A 
ATOM     18  C   UNL     1       4.915   0.831   0.000  1.00  0.00     0.057 A 
ATOM     19  C   UNL     1       3.484   0.379   0.000  1.00  0.00     0.007 A 
ATOM     20  C   UNL     1      -0.354   0.622   0.000  1.00  0.00     0.104 C 
ATOM     21  C   UNL     1      -1.478  -0.372   0.000  1.00  0.00     0.035 C 
ATOM     22  C   UNL     1      -2.900   0.103   0.000  1.00  0.00     0.040 C 
ATOM     23  H   UNL     1       0.000   0.000   0.000  1.00  0.00     0.166 HD
ENDROOT
BRANCH   1  24
ATOM     24  C   UNL     1      -3.724  -2.361   0.000  1.00  0.00     0.337 C 
ATOM     25  O   UNL     1      -2.301  -2.836   0.000  1.00  0.00    -0.246 OA
BRANCH  24  26
ATOM     26  O   UNL     1      -4.847  -3.355   0.000  1.00  0.00    -0.466 OA
ATOM     27  C   UNL     1      -4.548  -4.825   0.000  1.00  0.00     0.282 C 
ENDBRANCH  24  26
ENDBRANCH   1  24
BRANCH  17  28
ATOM     28  O   UNL     1       7.451   0.269   0.000  1.00  0.00    -0.497 OA
ATOM     29  C   UNL     1       8.557  -0.744   0.000  1.00  0.00     0.278 C 
ENDBRANCH  17  28
TORSDOF 3
