REMARK SMILES O=c1c2ccccc2oc2c(O)c3c(cc12)OCO3
REMARK SMILES IDX 1 1 2 2 3 3 4 4 5 5 6 6 7 7 8 8 9 9 10 10 11 11 13 12 14 13
REMARK SMILES IDX 15 14 16 15 17 16 18 17 19 18 12 19
REMARK H PARENT 12 20
ROOT
ATOM      1  O   UNL     1       1.191  -2.938   0.000  1.00  0.00    -0.288 OA
ATOM      2  C   UNL     1       1.107  -1.440   0.000  1.00  0.00     0.200 A 
ATOM      3  C   UNL     1       2.361  -0.618   0.000  1.00  0.00     0.065 A 
ATOM      4  C   UNL     1       3.701  -1.293   0.000  1.00  0.00     0.016 A 
ATOM      5  C   UNL     1       4.955  -0.471   0.000  1.00  0.00     0.001 A 
ATOM      6  C   UNL     1       4.871   1.026   0.000  1.00  0.00     0.004 A 
ATOM      7  C   UNL     1       3.531   1.702   0.000  1.00  0.00     0.048 A 
ATOM      8  C   UNL     1       2.277   0.880   0.000  1.00  0.00     0.138 A 
ATOM      9  O   UNL     1       0.938   1.555   0.000  1.00  0.00    -0.452 OA
ATOM     10  C   UNL     1      -0.317   0.733   0.000  1.00  0.00     0.184 A 
ATOM     11  C   UNL     1      -1.656   1.409   0.000  1.00  0.00     0.206 A 
ATOM     12  C   UNL     1      -2.911   0.587   0.000  1.00  0.00     0.211 A 
ATOM     13  C   UNL     1      -2.826  -0.911   0.000  1.00  0.00     0.170 A 
ATOM     14  C   UNL     1      -1.487  -1.586   0.000  1.00  0.00     0.067 A 
ATOM     15  C   UNL     1      -0.233  -0.764   0.000  1.00  0.00     0.073 A 
ATOM     16  O   UNL     1      -4.225  -1.454   0.000  1.00  0.00    -0.453 OA
ATOM     17  C   UNL     1      -5.173  -0.292   0.000  1.00  0.00     0.468 C 
ATOM     18  O   UNL     1      -4.362   0.969   0.000  1.00  0.00    -0.450 OA
ENDROOT
BRANCH  11  19
ATOM     19  O   UNL     1      -1.741   2.906   0.000  1.00  0.00    -0.502 OA
ATOM     20  H   UNL     1       0.000   0.000   0.000  1.00  0.00     0.293 HD
ENDBRANCH  11  19
TORSDOF 1
