REMARK SMILES C=CC[C@]12C=C(OC)C(=O)C=C1O[C@@H](c1cc(OC)c(OC)c(OC)c1)[C@H]2C
REMARK SMILES IDX 4 1 5 2 6 3 9 4 10 5 11 6 12 7 13 8 14 9 27 10 28 11 3 12
REMARK SMILES IDX 2 13 1 14 7 15 8 16 15 17 16 18 26 19 17 20 23 21 20 22
REMARK SMILES IDX 18 23 19 24 24 25 25 26 21 27 22 28
REMARK H PARENT
ROOT
ATOM      1  C   UNL     1       2.171   0.104   0.000  1.00  0.00     0.060 C 
ATOM      2  C   UNL     1       3.547  -0.491   0.000  1.00  0.00     0.039 C 
ATOM      3  C   UNL     1       4.752   0.403   0.000  1.00  0.00     0.163 C 
ATOM      4  C   UNL     1       4.579   1.893   0.000  1.00  0.00     0.223 C 
ATOM      5  O   UNL     1       5.784   2.787   0.000  1.00  0.00    -0.286 OA
ATOM      6  C   UNL     1       3.203   2.489   0.000  1.00  0.00     0.098 C 
ATOM      7  C   UNL     1       1.998   1.594   0.000  1.00  0.00     0.112 C 
ATOM      8  O   UNL     1       0.528   1.891   0.000  1.00  0.00    -0.489 OA
ATOM      9  C   UNL     1      -0.208   0.584   0.000  1.00  0.00     0.207 C 
ATOM     10  C   UNL     1       0.807  -0.520   0.000  1.00  0.00     0.050 C 
ATOM     11  C   UNL     1       0.510  -1.990   0.000  1.00  0.00     0.013 C 
ENDROOT
BRANCH   1  12
ATOM     12  C   UNL     1       2.186  -1.396   0.000  1.00  0.00     0.046 C 
BRANCH  12  13
ATOM     13  C   UNL     1       3.493  -2.132   0.000  1.00  0.00    -0.033 C 
ATOM     14  C   UNL     1       3.509  -3.632   0.000  1.00  0.00     0.004 C 
ENDBRANCH  12  13
ENDBRANCH   1  12
BRANCH   3  15
ATOM     15  O   UNL     1       6.128  -0.193   0.000  1.00  0.00    -0.493 OA
ATOM     16  C   UNL     1       6.301  -1.683   0.000  1.00  0.00     0.278 C 
ENDBRANCH   3  15
BRANCH   9  17
ATOM     17  C   UNL     1      -1.698   0.412   0.000  1.00  0.00     0.000 A 
ATOM     18  C   UNL     1      -2.593   1.616   0.000  1.00  0.00     0.058 A 
ATOM     19  C   UNL     1      -2.294  -0.965   0.000  1.00  0.00     0.058 A 
ATOM     20  C   UNL     1      -4.083   1.444   0.000  1.00  0.00     0.165 A 
ATOM     21  C   UNL     1      -3.784  -1.137   0.000  1.00  0.00     0.165 A 
ATOM     22  C   UNL     1      -4.679   0.067   0.000  1.00  0.00     0.203 A 
BRANCH  20  23
ATOM     23  O   UNL     1      -4.977   2.648   0.000  1.00  0.00    -0.493 OA
ATOM     24  C   UNL     1      -4.381   4.025   0.000  1.00  0.00     0.278 C 
ENDBRANCH  20  23
BRANCH  21  25
ATOM     25  O   UNL     1      -4.380  -2.514   0.000  1.00  0.00    -0.493 OA
ATOM     26  C   UNL     1      -3.486  -3.718   0.000  1.00  0.00     0.278 C 
ENDBRANCH  21  25
BRANCH  22  27
ATOM     27  O   UNL     1      -6.169  -0.105   0.000  1.00  0.00    -0.490 OA
ATOM     28  C   UNL     1      -6.764  -1.482   0.000  1.00  0.00     0.278 C 
ENDBRANCH  22  27
ENDBRANCH   9  17
TORSDOF 7
