REMARK SMILES COc1cc(-c2oc3cc(OC)c(OC)c(OC)c3c(=O)c2OC)cc(O)c1OC
REMARK SMILES IDX 6 1 22 2 20 3 21 4 19 5 16 6 13 7 10 8 9 9 8 10 7 11 5 12
REMARK SMILES IDX 3 13 4 14 28 15 26 16 25 17 2 18 1 19 29 20 30 21 27 22
REMARK SMILES IDX 23 24 24 25 17 26 18 27 11 28 12 29 14 30 15 31
REMARK H PARENT 27 23
ROOT
ATOM      1  C   UNL     1      -0.773  -0.291   0.000  1.00  0.00     0.180 A 
ATOM      2  C   UNL     1      -0.120  -1.641   0.000  1.00  0.00     0.210 A 
ATOM      3  C   UNL     1       1.376  -1.750   0.000  1.00  0.00     0.239 A 
ATOM      4  O   UNL     1       2.030  -3.100   0.000  1.00  0.00    -0.285 OA
ATOM      5  C   UNL     1       2.219  -0.509   0.000  1.00  0.00     0.115 A 
ATOM      6  C   UNL     1       3.715  -0.618   0.000  1.00  0.00     0.179 A 
ATOM      7  C   UNL     1       4.557   0.623   0.000  1.00  0.00     0.204 A 
ATOM      8  C   UNL     1       3.904   1.973   0.000  1.00  0.00     0.168 A 
ATOM      9  C   UNL     1       2.408   2.082   0.000  1.00  0.00     0.098 A 
ATOM     10  C   UNL     1       1.565   0.841   0.000  1.00  0.00     0.146 A 
ATOM     11  O   UNL     1       0.069   0.950   0.000  1.00  0.00    -0.452 OA
ENDROOT
BRANCH   1  12
ATOM     12  C   UNL     1      -2.269  -0.182   0.000  1.00  0.00     0.029 A 
ATOM     13  C   UNL     1      -4.419   1.277   0.000  1.00  0.00     0.165 A 
ATOM     14  C   UNL     1      -2.923   1.168   0.000  1.00  0.00     0.062 A 
ATOM     15  C   UNL     1      -5.261   0.036   0.000  1.00  0.00     0.203 A 
ATOM     16  C   UNL     1      -4.608  -1.314   0.000  1.00  0.00     0.162 A 
ATOM     17  C   UNL     1      -3.112  -1.423   0.000  1.00  0.00     0.062 A 
BRANCH  13  18
ATOM     18  O   UNL     1      -5.072   2.627   0.000  1.00  0.00    -0.493 OA
ATOM     19  C   UNL     1      -4.230   3.868   0.000  1.00  0.00     0.278 C 
ENDBRANCH  13  18
BRANCH  15  20
ATOM     20  O   UNL     1      -6.757   0.145   0.000  1.00  0.00    -0.490 OA
ATOM     21  C   UNL     1      -7.411   1.495   0.000  1.00  0.00     0.278 C 
ENDBRANCH  15  20
BRANCH  16  22
ATOM     22  O   UNL     1      -5.450  -2.555   0.000  1.00  0.00    -0.504 OA
ATOM     23  H   UNL     1       0.000   0.000   0.000  1.00  0.00     0.293 HD
ENDBRANCH  16  22
ENDBRANCH   1  12
BRANCH   2  24
ATOM     24  O   UNL     1      -0.962  -2.882   0.000  1.00  0.00    -0.490 OA
ATOM     25  C   UNL     1      -2.458  -2.773   0.000  1.00  0.00     0.278 C 
ENDBRANCH   2  24
BRANCH   6  26
ATOM     26  O   UNL     1       4.369  -1.968   0.000  1.00  0.00    -0.492 OA
ATOM     27  C   UNL     1       5.864  -2.077   0.000  1.00  0.00     0.278 C 
ENDBRANCH   6  26
BRANCH   8  28
ATOM     28  O   UNL     1       4.746   3.214   0.000  1.00  0.00    -0.493 OA
ATOM     29  C   UNL     1       6.242   3.105   0.000  1.00  0.00     0.278 C 
ENDBRANCH   8  28
BRANCH   7  30
ATOM     30  O   UNL     1       6.053   0.514   0.000  1.00  0.00    -0.490 OA
ATOM     31  C   UNL     1       6.707  -0.836   0.000  1.00  0.00     0.278 C 
ENDBRANCH   7  30
TORSDOF 8
