REMARK SMILES CC(=O)OCC1(COC(C)=O)[C@@H](OC(C)=O)[C@H](OC(C)=O)C[C@]2(C)[C@H]3CC=C4[C@H]5[C@](C)(CC[C@@H](C)[C@@]5(C)O)CC[C@@]4(C)[C@]3(C)CC[C@@H]12
REMARK SMILES IDX 6 1 12 2 17 3 22 4 23 5 24 6 25 7 26 8 27 9 28 10 29 11
REMARK SMILES IDX 30 12 31 13 32 14 33 15 34 16 35 17 36 18 37 19 39 20 40 21
REMARK SMILES IDX 41 22 42 23 43 24 44 25 45 26 46 27 47 28 5 29 4 30 2 31
REMARK SMILES IDX 1 32 3 33 7 34 8 35 9 36 10 37 11 38 13 39 14 40 15 41 16 42
REMARK SMILES IDX 18 43 19 44 20 45 21 46 38 47
REMARK H PARENT 38 48
ROOT
ATOM      1  C   UNL     1       3.012  -0.036   0.000  1.00  0.00     0.083 C 
ATOM      2  C   UNL     1       3.585   1.350   0.000  1.00  0.00     0.230 C 
ATOM      3  C   UNL     1       2.671   2.539   0.000  1.00  0.00     0.218 C 
ATOM      4  C   UNL     1       1.184   2.342   0.000  1.00  0.00     0.056 C 
ATOM      5  C   UNL     1       0.611   0.956   0.000  1.00  0.00    -0.021 C 
ATOM      6  C   UNL     1      -0.303   2.145   0.000  1.00  0.00     0.012 C 
ATOM      7  C   UNL     1      -0.876   0.759   0.000  1.00  0.00     0.006 C 
ATOM      8  C   UNL     1      -1.790   1.948   0.000  1.00  0.00     0.032 C 
ATOM      9  C   UNL     1      -3.277   1.751   0.000  1.00  0.00    -0.026 C 
ATOM     10  C   UNL     1      -3.850   0.365   0.000  1.00  0.00    -0.061 C 
ATOM     11  C   UNL     1      -5.337   0.168   0.000  1.00  0.00     0.053 C 
ATOM     12  C   UNL     1      -5.910  -1.218   0.000  1.00  0.00    -0.023 C 
ATOM     13  C   UNL     1      -6.483  -2.604   0.000  1.00  0.00     0.012 C 
ATOM     14  C   UNL     1      -7.397  -1.415   0.000  1.00  0.00     0.008 C 
ATOM     15  C   UNL     1      -8.311  -0.226   0.000  1.00  0.00     0.007 C 
ATOM     16  C   UNL     1      -7.738   1.161   0.000  1.00  0.00     0.018 C 
ATOM     17  C   UNL     1      -8.652   2.350   0.000  1.00  0.00     0.011 C 
ATOM     18  C   UNL     1      -6.251   1.358   0.000  1.00  0.00     0.072 C 
ATOM     19  C   UNL     1      -4.921   2.051   0.000  1.00  0.00     0.043 C 
ATOM     20  C   UNL     1      -4.996  -2.407   0.000  1.00  0.00     0.008 C 
ATOM     21  C   UNL     1      -3.509  -2.210   0.000  1.00  0.00     0.012 C 
ATOM     22  C   UNL     1      -2.936  -0.824   0.000  1.00  0.00    -0.006 C 
ATOM     23  C   UNL     1      -2.363   0.562   0.000  1.00  0.00     0.017 C 
ATOM     24  C   UNL     1      -1.449  -0.627   0.000  1.00  0.00    -0.020 C 
ATOM     25  C   UNL     1      -2.022  -2.014   0.000  1.00  0.00     0.012 C 
ATOM     26  C   UNL     1      -0.535  -1.817   0.000  1.00  0.00     0.008 C 
ATOM     27  C   UNL     1       0.952  -1.620   0.000  1.00  0.00     0.006 C 
ATOM     28  C   UNL     1       1.525  -0.233   0.000  1.00  0.00     0.012 C 
ENDROOT
BRANCH   1  29
ATOM     29  C   UNL     1       2.947  -1.535   0.000  1.00  0.00     0.247 C 
BRANCH  29  30
ATOM     30  O   UNL     1       1.618  -2.229   0.000  1.00  0.00    -0.465 OA
BRANCH  30  31
ATOM     31  C   UNL     1       1.553  -3.727   0.000  1.00  0.00     0.302 C 
ATOM     32  C   UNL     1       0.223  -4.421   0.000  1.00  0.00     0.139 C 
ATOM     33  O   UNL     1       2.819  -4.532   0.000  1.00  0.00    -0.253 OA
ENDBRANCH  30  31
ENDBRANCH  29  30
ENDBRANCH   1  29
BRANCH   1  34
ATOM     34  C   UNL     1       4.476  -0.360   0.000  1.00  0.00     0.247 C 
BRANCH  34  35
ATOM     35  O   UNL     1       4.929  -1.790   0.000  1.00  0.00    -0.465 OA
BRANCH  35  36
ATOM     36  C   UNL     1       6.393  -2.114   0.000  1.00  0.00     0.302 C 
ATOM     37  C   UNL     1       6.846  -3.544   0.000  1.00  0.00     0.139 C 
ATOM     38  O   UNL     1       7.406  -1.007   0.000  1.00  0.00    -0.253 OA
ENDBRANCH  35  36
ENDBRANCH  34  35
ENDBRANCH   1  34
BRANCH   2  39
ATOM     39  O   UNL     1       5.072   1.547   0.000  1.00  0.00    -0.458 OA
BRANCH  39  40
ATOM     40  C   UNL     1       5.986   0.357   0.000  1.00  0.00     0.303 C 
ATOM     41  C   UNL     1       5.413  -1.029   0.000  1.00  0.00     0.139 C 
ATOM     42  O   UNL     1       7.473   0.554   0.000  1.00  0.00    -0.253 OA
ENDBRANCH  39  40
ENDBRANCH   2  39
BRANCH   3  43
ATOM     43  O   UNL     1       3.244   3.925   0.000  1.00  0.00    -0.459 OA
BRANCH  43  44
ATOM     44  C   UNL     1       4.731   4.122   0.000  1.00  0.00     0.303 C 
ATOM     45  C   UNL     1       5.304   5.508   0.000  1.00  0.00     0.139 C 
ATOM     46  O   UNL     1       5.645   2.933   0.000  1.00  0.00    -0.253 OA
ENDBRANCH  43  44
ENDBRANCH   3  43
BRANCH  18  47
ATOM     47  O   UNL     1      -6.704   2.788   0.000  1.00  0.00    -0.389 OA
ATOM     48  H   UNL     1       0.000   0.000   0.000  1.00  0.00     0.211 HD
ENDBRANCH  18  47
TORSDOF 11
