REMARK SMILES COC(=O)C=C[C@]1(C)[C@H]2CC[C@@]3(C)[C@H](c4ccoc4)OC(=O)[C@H]4O[C@]43[C@]2(C)[C@@H](O)C(=O)[C@]12OC2(C)C
REMARK SMILES IDX 5 1 3 2 4 3 2 4 1 5 6 6 7 7 9 8 32 9 10 10 26 11 30 12 33 13
REMARK SMILES IDX 34 14 11 15 25 16 28 17 12 18 24 19 23 20 14 21 21 22 20 23
REMARK SMILES IDX 8 24 27 25 31 26 35 27 36 28 13 29 22 30 29 31 15 33 19 34
REMARK SMILES IDX 16 35 18 36 17 37
REMARK H PARENT 29 32
ROOT
ATOM      1  C   UNL     1      -3.325   2.025   0.000  1.00  0.00     0.090 C 
ENDROOT
BRANCH   1   2
ATOM      2  C   UNL     1      -3.174   3.518   0.000  1.00  0.00     0.330 C 
ATOM      3  O   UNL     1      -1.806   4.133   0.000  1.00  0.00    -0.247 OA
BRANCH   2   4
ATOM      4  O   UNL     1      -4.391   4.394   0.000  1.00  0.00    -0.466 OA
ATOM      5  C   UNL     1      -4.240   5.887   0.000  1.00  0.00     0.282 C 
ENDBRANCH   2   4
ENDBRANCH   1   2
BRANCH   1   6
ATOM      6  C   UNL     1      -2.108   1.148   0.000  1.00  0.00    -0.009 C 
BRANCH   6   7
ATOM      7  C   UNL     1      -2.259  -0.344   0.000  1.00  0.00     0.029 C 
ATOM      8  C   UNL     1      -0.763  -0.234   0.000  1.00  0.00     0.014 C 
ATOM      9  C   UNL     1      -2.912  -1.695   0.000  1.00  0.00     0.167 C 
ATOM     10  C   UNL     1      -0.111   1.117   0.000  1.00  0.00     0.006 C 
ATOM     11  C   UNL     1       0.080  -1.474   0.000  1.00  0.00     0.037 C 
ATOM     12  C   UNL     1      -2.068  -2.935   0.000  1.00  0.00     0.197 C 
ATOM     13  O   UNL     1      -4.152  -2.538   0.000  1.00  0.00    -0.354 OA
ATOM     14  C   UNL     1      -4.262  -1.043   0.000  1.00  0.00     0.101 C 
ATOM     15  C   UNL     1       1.385   1.227   0.000  1.00  0.00     0.014 C 
ATOM     16  C   UNL     1       1.576  -1.364   0.000  1.00  0.00     0.124 C 
ATOM     17  C   UNL     1      -0.572  -2.825   0.000  1.00  0.00     0.193 C 
ATOM     18  C   UNL     1       2.229  -0.013   0.000  1.00  0.00     0.042 C 
ATOM     19  O   UNL     1       0.924  -2.715   0.000  1.00  0.00    -0.352 OA
ATOM     20  C   UNL     1       2.420  -2.604   0.000  1.00  0.00     0.262 C 
ATOM     21  C   UNL     1       3.725   0.097   0.000  1.00  0.00     0.219 C 
ATOM     22  C   UNL     1       3.916  -2.494   0.000  1.00  0.00     0.339 C 
ATOM     23  O   UNL     1       4.568  -1.143   0.000  1.00  0.00    -0.455 OA
ATOM     24  C   UNL     1      -3.267   0.079   0.000  1.00  0.00     0.020 C 
ATOM     25  C   UNL     1      -1.416  -1.585   0.000  1.00  0.00     0.018 C 
ATOM     26  O   UNL     1      -2.720  -4.286   0.000  1.00  0.00    -0.293 OA
ATOM     27  C   UNL     1      -5.755  -0.891   0.000  1.00  0.00     0.046 C 
ATOM     28  C   UNL     1      -4.095   0.038   0.000  1.00  0.00     0.046 C 
ATOM     29  C   UNL     1       2.881   1.337   0.000  1.00  0.00     0.019 C 
ATOM     30  O   UNL     1       4.759  -3.734   0.000  1.00  0.00    -0.249 OA
BRANCH  17  31
ATOM     31  O   UNL     1       0.272  -4.065   0.000  1.00  0.00    -0.384 OA
ATOM     32  H   UNL     1       0.000   0.000   0.000  1.00  0.00     0.211 HD
ENDBRANCH  17  31
BRANCH  21  33
ATOM     33  C   UNL     1       4.377   1.448   0.000  1.00  0.00     0.031 A 
ATOM     34  C   UNL     1       3.668   2.769   0.000  1.00  0.00     0.202 A 
ATOM     35  C   UNL     1       5.853   1.714   0.000  1.00  0.00     0.049 A 
ATOM     36  O   UNL     1       4.706   3.853   0.000  1.00  0.00    -0.472 OA
ATOM     37  C   UNL     1       6.056   3.200   0.000  1.00  0.00     0.195 A 
ENDBRANCH  21  33
ENDBRANCH   6   7
ENDBRANCH   1   6
TORSDOF 6
