REMARK SMILES Oc1cccc2cccc(O)c12
REMARK SMILES IDX 2 1 3 2 4 3 5 4 6 5 7 6 8 7 9 8 10 9 12 10 1 11 11 13
REMARK H PARENT 1 12 11 14
ROOT
ATOM      1  C   UNL     1      -1.299  -1.000   0.000  1.00  0.00     0.127 A 
ATOM      2  C   UNL     1      -2.598  -0.250   0.000  1.00  0.00     0.047 A 
ATOM      3  C   UNL     1      -2.598   1.250   0.000  1.00  0.00     0.004 A 
ATOM      4  C   UNL     1      -1.299   2.000   0.000  1.00  0.00     0.009 A 
ATOM      5  C   UNL     1       0.000   1.250   0.000  1.00  0.00    -0.011 A 
ATOM      6  C   UNL     1       1.299   2.000   0.000  1.00  0.00     0.009 A 
ATOM      7  C   UNL     1       2.598   1.250   0.000  1.00  0.00     0.004 A 
ATOM      8  C   UNL     1       2.598  -0.250   0.000  1.00  0.00     0.047 A 
ATOM      9  C   UNL     1       1.299  -1.000   0.000  1.00  0.00     0.127 A 
ATOM     10  C   UNL     1       0.000  -0.250   0.000  1.00  0.00     0.065 A 
ENDROOT
BRANCH   1  11
ATOM     11  O   UNL     1      -1.299  -2.500   0.000  1.00  0.00    -0.507 OA
ATOM     12  H   UNL     1       0.000   0.000   0.000  1.00  0.00     0.293 HD
ENDBRANCH   1  11
BRANCH   9  13
ATOM     13  O   UNL     1       1.299  -2.500   0.000  1.00  0.00    -0.507 OA
ATOM     14  H   UNL     1       0.000   0.000   0.000  1.00  0.00     0.293 HD
ENDBRANCH   9  13
TORSDOF 2
