REMARK SMILES COc1cc(/C=C/C(=O)O[C@@H]2CC[C@H](CCCCCCCCCCC(C)=O)N[C@@H]2C)ccc1O
REMARK SMILES IDX 16 1 15 2 14 3 11 4 12 5 29 6 13 7 28 8 30 9 10 11 8 12 9 13
REMARK SMILES IDX 7 14 6 15 5 16 3 17 4 18 33 19 32 20 31 21 2 22 1 23 34 24
REMARK SMILES IDX 17 26 18 27 19 28 20 29 21 30 22 31 23 32 24 33 25 34 26 35
REMARK SMILES IDX 27 36
REMARK H PARENT 28 10 34 25
ROOT
ATOM      1  C   UNL     1      -3.445  -0.374   0.000  1.00  0.00     0.002 C 
ENDROOT
BRANCH   1   2
ATOM      2  C   UNL     1      -2.260  -1.294   0.000  1.00  0.00     0.019 C 
BRANCH   2   3
ATOM      3  C   UNL     1      -0.871  -0.727   0.000  1.00  0.00     0.054 C 
ATOM      4  C   UNL     1       1.907   0.407   0.000  1.00  0.00     0.193 C 
ATOM      5  C   UNL     1       0.721   1.326   0.000  1.00  0.00     0.048 C 
ATOM      6  C   UNL     1       1.703  -1.079   0.000  1.00  0.00     0.091 C 
ATOM      7  C   UNL     1      -0.667   0.759   0.000  1.00  0.00     0.023 C 
ATOM      8  N   UNL     1       0.315  -1.646   0.000  1.00  0.00    -0.308 NA
ATOM      9  C   UNL     1       2.889  -1.998   0.000  1.00  0.00     0.028 C 
ATOM     10  H   UNL     1       0.000   0.000   0.000  1.00  0.00     0.123 HD
BRANCH   4  11
ATOM     11  O   UNL     1       3.296   0.974   0.000  1.00  0.00    -0.458 OA
BRANCH  11  12
ATOM     12  C   UNL     1       4.481   0.054   0.000  1.00  0.00     0.331 C 
ATOM     13  O   UNL     1       4.277  -1.432   0.000  1.00  0.00    -0.247 OA
BRANCH  12  14
ATOM     14  C   UNL     1       5.870   0.621   0.000  1.00  0.00     0.094 C 
BRANCH  14  15
ATOM     15  C   UNL     1       7.055  -0.298   0.000  1.00  0.00     0.016 C 
BRANCH  15  16
ATOM     16  C   UNL     1       8.444   0.269   0.000  1.00  0.00    -0.021 A 
ATOM     17  C   UNL     1      11.018  -0.084   0.000  1.00  0.00     0.161 A 
ATOM     18  C   UNL     1       9.629  -0.650   0.000  1.00  0.00     0.058 A 
ATOM     19  C   UNL     1      11.221   1.403   0.000  1.00  0.00     0.157 A 
ATOM     20  C   UNL     1      10.036   2.322   0.000  1.00  0.00     0.051 A 
ATOM     21  C   UNL     1       8.647   1.755   0.000  1.00  0.00     0.012 A 
BRANCH  17  22
ATOM     22  O   UNL     1      12.203  -1.003   0.000  1.00  0.00    -0.493 OA
ATOM     23  C   UNL     1      11.999  -2.489   0.000  1.00  0.00     0.278 C 
ENDBRANCH  17  22
BRANCH  19  24
ATOM     24  O   UNL     1      12.610   1.970   0.000  1.00  0.00    -0.504 OA
ATOM     25  H   UNL     1       0.000   0.000   0.000  1.00  0.00     0.293 HD
ENDBRANCH  19  24
ENDBRANCH  15  16
ENDBRANCH  14  15
ENDBRANCH  12  14
ENDBRANCH  11  12
ENDBRANCH   4  11
ENDBRANCH   2   3
ENDBRANCH   1   2
BRANCH   1  26
ATOM     26  C   UNL     1      -4.834  -0.941   0.000  1.00  0.00     0.000 C 
BRANCH  26  27
ATOM     27  C   UNL     1      -6.019  -0.022   0.000  1.00  0.00     0.000 C 
BRANCH  27  28
ATOM     28  C   UNL     1      -7.408  -0.589   0.000  1.00  0.00     0.000 C 
BRANCH  28  29
ATOM     29  C   UNL     1      -8.593   0.330   0.000  1.00  0.00     0.000 C 
BRANCH  29  30
ATOM     30  C   UNL     1      -9.982  -0.236   0.000  1.00  0.00     0.000 C 
BRANCH  30  31
ATOM     31  C   UNL     1     -11.167   0.683   0.000  1.00  0.00     0.000 C 
BRANCH  31  32
ATOM     32  C   UNL     1     -12.556   0.116   0.000  1.00  0.00     0.008 C 
BRANCH  32  33
ATOM     33  C   UNL     1     -13.741   1.035   0.000  1.00  0.00     0.075 C 
BRANCH  33  34
ATOM     34  C   UNL     1     -15.130   0.468   0.000  1.00  0.00     0.129 C 
ATOM     35  C   UNL     1     -16.315   1.388   0.000  1.00  0.00     0.087 C 
ATOM     36  O   UNL     1     -15.333  -1.018   0.000  1.00  0.00    -0.300 OA
ENDBRANCH  33  34
ENDBRANCH  32  33
ENDBRANCH  31  32
ENDBRANCH  30  31
ENDBRANCH  29  30
ENDBRANCH  28  29
ENDBRANCH  27  28
ENDBRANCH  26  27
ENDBRANCH   1  26
TORSDOF 18
