REMARK SMILES COC(=O)CCCCCCCCc1ccccc1
REMARK SMILES IDX 7 1 6 2 5 3 3 4 4 5 2 6 1 7 8 8 9 9 10 10 11 11 12 12 13 13
REMARK SMILES IDX 14 14 18 15 15 16 17 17 16 18
REMARK H PARENT
ROOT
ATOM      1  C   UNL     1      -2.787   0.410   0.000  1.00  0.00     0.001 C 
ENDROOT
BRANCH   1   2
ATOM      2  C   UNL     1      -4.156  -0.204   0.000  1.00  0.00     0.012 C 
BRANCH   2   3
ATOM      3  C   UNL     1      -5.372   0.674   0.000  1.00  0.00     0.123 C 
BRANCH   3   4
ATOM      4  C   UNL     1      -6.740   0.060   0.000  1.00  0.00     0.305 C 
ATOM      5  O   UNL     1      -6.893  -1.432   0.000  1.00  0.00    -0.252 OA
BRANCH   4   6
ATOM      6  O   UNL     1      -7.957   0.938   0.000  1.00  0.00    -0.469 OA
ATOM      7  C   UNL     1      -9.325   0.324   0.000  1.00  0.00     0.282 C 
ENDBRANCH   4   6
ENDBRANCH   3   4
ENDBRANCH   2   3
ENDBRANCH   1   2
BRANCH   1   8
ATOM      8  C   UNL     1      -1.571  -0.468   0.000  1.00  0.00     0.000 C 
BRANCH   8   9
ATOM      9  C   UNL     1      -0.203   0.146   0.000  1.00  0.00     0.000 C 
BRANCH   9  10
ATOM     10  C   UNL     1       1.013  -0.732   0.000  1.00  0.00     0.000 C 
BRANCH  10  11
ATOM     11  C   UNL     1       2.382  -0.118   0.000  1.00  0.00     0.005 C 
BRANCH  11  12
ATOM     12  C   UNL     1       3.598  -0.996   0.000  1.00  0.00     0.035 C 
BRANCH  12  13
ATOM     13  C   UNL     1       4.967  -0.382   0.000  1.00  0.00    -0.048 A 
ATOM     14  C   UNL     1       5.119   1.111   0.000  1.00  0.00     0.004 A 
ATOM     15  C   UNL     1       6.183  -1.260   0.000  1.00  0.00     0.004 A 
ATOM     16  C   UNL     1       6.487   1.725   0.000  1.00  0.00     0.000 A 
ATOM     17  C   UNL     1       7.551  -0.645   0.000  1.00  0.00     0.000 A 
ATOM     18  C   UNL     1       7.704   0.847   0.000  1.00  0.00     0.000 A 
ENDBRANCH  12  13
ENDBRANCH  11  12
ENDBRANCH  10  11
ENDBRANCH   9  10
ENDBRANCH   8   9
ENDBRANCH   1   8
TORSDOF 10
