REMARK SMILES C=CC[C@@]12C[C@@H](OC)[C@@H](O)[C@@](OC)(C1=O)[C@@H](c1cc(OC)c(OC)c(OC)c1)[C@@H]2C
REMARK SMILES IDX 4 1 5 2 6 3 9 4 11 5 14 6 15 7 16 8 29 9 30 10 3 11 2 12
REMARK SMILES IDX 1 13 7 14 8 15 12 16 13 17 17 18 18 19 28 20 19 21 25 22
REMARK SMILES IDX 22 23 20 24 21 25 26 26 27 27 23 28 24 29 10 30
REMARK H PARENT 10 31
ROOT
ATOM      1  C   UNL     1       2.665  -0.959   0.000  1.00  0.00     0.041 C 
ATOM      2  C   UNL     1       3.920  -0.136   0.000  1.00  0.00     0.050 C 
ATOM      3  C   UNL     1       3.835   1.361   0.000  1.00  0.00     0.151 C 
ATOM      4  C   UNL     1       2.495   2.037   0.000  1.00  0.00     0.183 C 
ATOM      5  C   UNL     1       1.241   1.214   0.000  1.00  0.00     0.162 C 
ATOM      6  C   UNL     1       1.326  -0.283   0.000  1.00  0.00     0.174 C 
ATOM      7  O   UNL     1       0.071  -1.106   0.000  1.00  0.00    -0.296 OA
ATOM      8  C   UNL     1       0.396  -0.099   0.000  1.00  0.00     0.066 C 
ATOM      9  C   UNL     1       1.218  -1.353   0.000  1.00  0.00     0.011 C 
ATOM     10  C   UNL     1       0.686  -2.756   0.000  1.00  0.00     0.009 C 
ENDROOT
BRANCH   1  11
ATOM     11  C   UNL     1       2.750  -2.456   0.000  1.00  0.00     0.042 C 
BRANCH  11  12
ATOM     12  C   UNL     1       4.089  -3.132   0.000  1.00  0.00    -0.034 C 
ATOM     13  C   UNL     1       4.174  -4.629   0.000  1.00  0.00     0.004 C 
ENDBRANCH  11  12
ENDBRANCH   1  11
BRANCH   3  14
ATOM     14  O   UNL     1       5.089   2.183   0.000  1.00  0.00    -0.379 OA
ATOM     15  C   UNL     1       6.429   1.508   0.000  1.00  0.00     0.195 C 
ENDBRANCH   3  14
BRANCH   5  16
ATOM     16  O   UNL     1      -0.099   1.890   0.000  1.00  0.00    -0.367 OA
ATOM     17  C   UNL     1      -0.183   3.387   0.000  1.00  0.00     0.196 C 
ENDBRANCH   5  16
BRANCH   8  18
ATOM     18  C   UNL     1      -1.103  -0.026   0.000  1.00  0.00    -0.034 A 
ATOM     19  C   UNL     1      -1.789   1.307   0.000  1.00  0.00     0.054 A 
ATOM     20  C   UNL     1      -1.914  -1.288   0.000  1.00  0.00     0.054 A 
ATOM     21  C   UNL     1      -3.288   1.379   0.000  1.00  0.00     0.164 A 
ATOM     22  C   UNL     1      -3.413  -1.216   0.000  1.00  0.00     0.164 A 
ATOM     23  C   UNL     1      -4.099   0.118   0.000  1.00  0.00     0.203 A 
BRANCH  21  24
ATOM     24  O   UNL     1      -3.974   2.713   0.000  1.00  0.00    -0.493 OA
ATOM     25  C   UNL     1      -3.163   3.974   0.000  1.00  0.00     0.278 C 
ENDBRANCH  21  24
BRANCH  22  26
ATOM     26  O   UNL     1      -4.224  -2.477   0.000  1.00  0.00    -0.493 OA
ATOM     27  C   UNL     1      -3.538  -3.811   0.000  1.00  0.00     0.278 C 
ENDBRANCH  22  26
BRANCH  23  28
ATOM     28  O   UNL     1      -5.598   0.190   0.000  1.00  0.00    -0.490 OA
ATOM     29  C   UNL     1      -6.409  -1.071   0.000  1.00  0.00     0.278 C 
ENDBRANCH  23  28
ENDBRANCH   8  18
BRANCH   4  30
ATOM     30  O   UNL     1       2.410   3.534   0.000  1.00  0.00    -0.387 OA
ATOM     31  H   UNL     1       0.000   0.000   0.000  1.00  0.00     0.211 HD
ENDBRANCH   4  30
TORSDOF 9
