REMARK SMILES C/C=C(\C)C(=O)CO[C@@H]1C2C=C3[C@@H]4CC(=O)O[C@@H](C5=CC(O)OC5=O)[C@]4(C)CC[C@@H]3[C@@](C)(C2=O)[C@@H](CC(=O)OC)C1(C)C
REMARK SMILES IDX 8 1 7 2 5 3 6 4 3 5 4 6 2 7 1 8 9 9 10 10 41 11 11 12 33 13
REMARK SMILES IDX 35 14 12 15 31 16 13 17 30 18 14 19 26 20 29 21 15 22 18 23
REMARK SMILES IDX 28 24 17 25 42 26 43 27 34 28 32 29 27 30 16 31 36 32 37 33
REMARK SMILES IDX 38 34 39 35 40 36 19 37 20 38 24 39 21 40 23 41 25 42 22 43
REMARK H PARENT 22 44
ROOT
ATOM      1  O   UNL     1       4.790  -0.364   0.000  1.00  0.00    -0.368 OA
ENDROOT
BRANCH   1   2
ATOM      2  C   UNL     1       5.058   1.112   0.000  1.00  0.00     0.241 C 
BRANCH   2   3
ATOM      3  C   UNL     1       6.470   1.617   0.000  1.00  0.00     0.183 C 
ATOM      4  O   UNL     1       7.614   0.647   0.000  1.00  0.00    -0.292 OA
BRANCH   3   5
ATOM      5  C   UNL     1       6.738   3.093   0.000  1.00  0.00    -0.010 C 
ATOM      6  C   UNL     1       5.594   4.063   0.000  1.00  0.00     0.048 C 
BRANCH   5   7
ATOM      7  C   UNL     1       8.150   3.599   0.000  1.00  0.00    -0.023 C 
ATOM      8  C   UNL     1       8.418   5.075   0.000  1.00  0.00     0.036 C 
ENDBRANCH   5   7
ENDBRANCH   3   5
ENDBRANCH   2   3
ENDBRANCH   1   2
BRANCH   1   9
ATOM      9  C   UNL     1       3.377  -0.870   0.000  1.00  0.00     0.139 C 
ATOM     10  C   UNL     1       2.233   0.100   0.000  1.00  0.00     0.109 C 
ATOM     11  C   UNL     1       3.109  -2.346   0.000  1.00  0.00    -0.004 C 
ATOM     12  C   UNL     1       1.089   1.070   0.000  1.00  0.00    -0.013 C 
ATOM     13  C   UNL     1       1.965  -1.376   0.000  1.00  0.00     0.149 C 
ATOM     14  C   UNL     1       1.697  -2.852   0.000  1.00  0.00     0.022 C 
ATOM     15  C   UNL     1      -0.323   0.565   0.000  1.00  0.00    -0.065 C 
ATOM     16  C   UNL     1       0.553  -1.881   0.000  1.00  0.00     0.037 C 
ATOM     17  C   UNL     1      -1.467   1.535   0.000  1.00  0.00     0.036 C 
ATOM     18  C   UNL     1      -0.591  -0.911   0.000  1.00  0.00     0.029 C 
ATOM     19  C   UNL     1      -1.199   3.011   0.000  1.00  0.00     0.131 C 
ATOM     20  C   UNL     1      -2.879   1.029   0.000  1.00  0.00     0.016 C 
ATOM     21  C   UNL     1      -2.003  -1.417   0.000  1.00  0.00     0.010 C 
ATOM     22  C   UNL     1      -2.343   3.981   0.000  1.00  0.00     0.307 C 
ATOM     23  C   UNL     1      -4.023   1.999   0.000  1.00  0.00     0.220 C 
ATOM     24  C   UNL     1      -3.147  -0.447   0.000  1.00  0.00     0.012 C 
ATOM     25  O   UNL     1      -3.755   3.475   0.000  1.00  0.00    -0.457 OA
ATOM     26  C   UNL     1       3.362  -3.824   0.000  1.00  0.00     0.014 C 
ATOM     27  C   UNL     1       4.609  -2.353   0.000  1.00  0.00     0.014 C 
ATOM     28  O   UNL     1       2.680  -1.729   0.000  1.00  0.00    -0.298 OA
ATOM     29  C   UNL     1       0.285  -3.357   0.000  1.00  0.00     0.021 C 
ATOM     30  C   UNL     1      -4.291   0.523   0.000  1.00  0.00     0.016 C 
ATOM     31  O   UNL     1      -2.075   5.457   0.000  1.00  0.00    -0.252 OA
BRANCH  14  32
ATOM     32  C   UNL     1       1.429  -4.327   0.000  1.00  0.00     0.128 C 
BRANCH  32  33
ATOM     33  C   UNL     1       0.017  -4.833   0.000  1.00  0.00     0.305 C 
ATOM     34  O   UNL     1      -1.127  -3.863   0.000  1.00  0.00    -0.252 OA
BRANCH  33  35
ATOM     35  O   UNL     1      -0.251  -6.309   0.000  1.00  0.00    -0.469 OA
ATOM     36  C   UNL     1      -1.663  -6.815   0.000  1.00  0.00     0.282 C 
ENDBRANCH  33  35
ENDBRANCH  32  33
ENDBRANCH  14  32
BRANCH  23  37
ATOM     37  C   UNL     1      -5.435   1.493   0.000  1.00  0.00     0.080 C 
ATOM     38  C   UNL     1      -5.856   0.054   0.000  1.00  0.00     0.063 C 
ATOM     39  C   UNL     1      -6.675   2.339   0.000  1.00  0.00     0.340 C 
ATOM     40  C   UNL     1      -7.356   0.009   0.000  1.00  0.00     0.334 C 
ATOM     41  O   UNL     1      -7.861   1.421   0.000  1.00  0.00    -0.429 OA
ATOM     42  O   UNL     1      -6.719   3.838   0.000  1.00  0.00    -0.246 OA
BRANCH  40  43
ATOM     43  O   UNL     1      -8.201  -1.230   0.000  1.00  0.00    -0.355 OA
ATOM     44  H   UNL     1       0.000   0.000   0.000  1.00  0.00     0.215 HD
ENDBRANCH  40  43
ENDBRANCH  23  37
ENDBRANCH   1   9
TORSDOF 10
