REMARK SMILES COc1cc2c(cc1OC)[C@H](c1ccc(OC(C)=O)c(OC)c1)[C@@H](COC(C)=O)[C@H](COC(C)=O)C2
REMARK SMILES IDX 3 1 4 2 5 3 6 4 7 5 8 6 11 7 24 8 30 9 36 10 2 11 1 12 9 13
REMARK SMILES IDX 10 14 12 15 13 16 23 17 14 18 20 19 15 20 21 21 22 22 16 23
REMARK SMILES IDX 17 24 18 25 19 26 31 27 32 28 33 29 34 30 35 31 25 32 26 33
REMARK SMILES IDX 27 34 28 35 29 36
REMARK H PARENT
ROOT
ATOM      1  C   UNL     1       2.279  -4.549   0.000  1.00  0.00     0.161 A 
ATOM      2  C   UNL     1       0.779  -4.524   0.000  1.00  0.00     0.054 A 
ATOM      3  C   UNL     1       0.051  -3.213   0.000  1.00  0.00    -0.040 A 
ATOM      4  C   UNL     1       0.822  -1.926   0.000  1.00  0.00    -0.033 A 
ATOM      5  C   UNL     1       2.322  -1.951   0.000  1.00  0.00     0.055 A 
ATOM      6  C   UNL     1       3.050  -3.263   0.000  1.00  0.00     0.161 A 
ATOM      7  C   UNL     1       0.094  -0.615   0.000  1.00  0.00     0.057 C 
ATOM      8  C   UNL     1      -1.406  -0.590   0.000  1.00  0.00     0.046 C 
ATOM      9  C   UNL     1      -2.177  -1.876   0.000  1.00  0.00     0.039 C 
ATOM     10  C   UNL     1      -1.449  -3.188   0.000  1.00  0.00     0.043 C 
ENDROOT
BRANCH   1  11
ATOM     11  O   UNL     1       3.007  -5.861   0.000  1.00  0.00    -0.493 OA
ATOM     12  C   UNL     1       2.235  -7.147   0.000  1.00  0.00     0.278 C 
ENDBRANCH   1  11
BRANCH   6  13
ATOM     13  O   UNL     1       4.550  -3.288   0.000  1.00  0.00    -0.493 OA
ATOM     14  C   UNL     1       5.322  -2.001   0.000  1.00  0.00     0.278 C 
ENDBRANCH   6  13
BRANCH   7  15
ATOM     15  C   UNL     1       0.866   0.671   0.000  1.00  0.00    -0.036 A 
ATOM     16  C   UNL     1       2.365   0.646   0.000  1.00  0.00     0.008 A 
ATOM     17  C   UNL     1       0.137   1.983   0.000  1.00  0.00     0.054 A 
ATOM     18  C   UNL     1       3.137   1.933   0.000  1.00  0.00     0.051 A 
ATOM     19  C   UNL     1       0.909   3.269   0.000  1.00  0.00     0.161 A 
ATOM     20  C   UNL     1       2.409   3.244   0.000  1.00  0.00     0.172 A 
BRANCH  19  21
ATOM     21  O   UNL     1       0.180   4.580   0.000  1.00  0.00    -0.493 OA
ATOM     22  C   UNL     1      -1.319   4.605   0.000  1.00  0.00     0.278 C 
ENDBRANCH  19  21
BRANCH  20  23
ATOM     23  O   UNL     1       3.180   4.530   0.000  1.00  0.00    -0.423 OA
BRANCH  23  24
ATOM     24  C   UNL     1       4.680   4.505   0.000  1.00  0.00     0.308 C 
ATOM     25  C   UNL     1       5.452   5.792   0.000  1.00  0.00     0.139 C 
ATOM     26  O   UNL     1       5.408   3.194   0.000  1.00  0.00    -0.252 OA
ENDBRANCH  23  24
ENDBRANCH  20  23
ENDBRANCH   7  15
BRANCH   9  27
ATOM     27  C   UNL     1      -3.677  -1.851   0.000  1.00  0.00     0.237 C 
BRANCH  27  28
ATOM     28  O   UNL     1      -4.405  -0.540   0.000  1.00  0.00    -0.466 OA
BRANCH  28  29
ATOM     29  C   UNL     1      -5.905  -0.515   0.000  1.00  0.00     0.302 C 
ATOM     30  C   UNL     1      -6.633   0.796   0.000  1.00  0.00     0.139 C 
ATOM     31  O   UNL     1      -6.677  -1.801   0.000  1.00  0.00    -0.253 OA
ENDBRANCH  28  29
ENDBRANCH  27  28
ENDBRANCH   9  27
BRANCH   8  32
ATOM     32  C   UNL     1      -2.134   0.721   0.000  1.00  0.00     0.237 C 
BRANCH  32  33
ATOM     33  O   UNL     1      -3.634   0.746   0.000  1.00  0.00    -0.466 OA
BRANCH  33  34
ATOM     34  C   UNL     1      -4.362   2.058   0.000  1.00  0.00     0.302 C 
ATOM     35  C   UNL     1      -5.862   2.083   0.000  1.00  0.00     0.139 C 
ATOM     36  O   UNL     1      -3.591   3.344   0.000  1.00  0.00    -0.253 OA
ENDBRANCH  33  34
ENDBRANCH  32  33
ENDBRANCH   8  32
TORSDOF 12
