REMARK SMILES C[C@@H]1NC(=O)[C@@H](Cc2c[nH]c3ccccc23)n2c1nc1ccccc1c2=O
REMARK SMILES IDX 7 1 6 2 2 3 3 4 18 5 4 6 17 7 19 8 26 9 20 10 25 11 21 12
REMARK SMILES IDX 24 13 22 14 23 15 1 16 5 18 27 19 8 20 9 21 16 22 10 23
REMARK SMILES IDX 15 24 11 25 14 26 12 27 13 28
REMARK H PARENT 3 17 10 29
ROOT
ATOM      1  C   UNL     1      -1.117   0.202   0.000  1.00  0.00     0.073 C 
ENDROOT
BRANCH   1   2
ATOM      2  C   UNL     1      -0.046  -0.848   0.000  1.00  0.00     0.185 C 
ATOM      3  C   UNL     1       2.097  -2.949   0.000  1.00  0.00     0.146 C 
ATOM      4  N   UNL     1       0.652  -3.351   0.000  1.00  0.00    -0.345 N 
ATOM      5  C   UNL     1       2.470  -1.496   0.000  1.00  0.00     0.135 A 
ATOM      6  C   UNL     1      -0.419  -2.301   0.000  1.00  0.00     0.244 C 
ATOM      7  N   UNL     1       1.399  -0.446   0.000  1.00  0.00    -0.281 N 
ATOM      8  N   UNL     1       3.916  -1.093   0.000  1.00  0.00    -0.232 NA
ATOM      9  C   UNL     1       1.773   1.007   0.000  1.00  0.00     0.262 A 
ATOM     10  C   UNL     1       4.289   0.359   0.000  1.00  0.00     0.078 A 
ATOM     11  C   UNL     1       3.218   1.409   0.000  1.00  0.00     0.066 A 
ATOM     12  C   UNL     1       5.734   0.762   0.000  1.00  0.00     0.029 A 
ATOM     13  C   UNL     1       3.592   2.862   0.000  1.00  0.00     0.016 A 
ATOM     14  C   UNL     1       6.108   2.215   0.000  1.00  0.00     0.002 A 
ATOM     15  C   UNL     1       5.037   3.265   0.000  1.00  0.00     0.001 A 
ATOM     16  C   UNL     1       3.168  -3.999   0.000  1.00  0.00     0.039 C 
ATOM     17  H   UNL     1       0.000   0.000   0.000  1.00  0.00     0.164 HD
ATOM     18  O   UNL     1      -1.865  -2.703   0.000  1.00  0.00    -0.273 OA
ATOM     19  O   UNL     1       0.702   2.057   0.000  1.00  0.00    -0.269 OA
ENDBRANCH   1   2
BRANCH   1  20
ATOM     20  C   UNL     1      -2.562  -0.201   0.000  1.00  0.00    -0.020 A 
ATOM     21  C   UNL     1      -3.085  -1.606   0.000  1.00  0.00     0.087 A 
ATOM     22  C   UNL     1      -3.737   0.732   0.000  1.00  0.00     0.003 A 
ATOM     23  N   UNL     1      -4.584  -1.542   0.000  1.00  0.00    -0.361 N 
ATOM     24  C   UNL     1      -3.830   2.229   0.000  1.00  0.00     0.010 A 
ATOM     25  C   UNL     1      -4.987  -0.098   0.000  1.00  0.00     0.046 A 
ATOM     26  C   UNL     1      -5.173   2.897   0.000  1.00  0.00     0.001 A 
ATOM     27  C   UNL     1      -6.330   0.570   0.000  1.00  0.00     0.026 A 
ATOM     28  C   UNL     1      -6.423   2.067   0.000  1.00  0.00     0.002 A 
ATOM     29  H   UNL     1       0.000   0.000   0.000  1.00  0.00     0.166 HD
ENDBRANCH   1  20
TORSDOF 2
