REMARK SMILES COc1cc2oc3c4c(cc(OC)c3c(=O)c2cc1OC)OC(C)(C)C=C4
REMARK SMILES IDX 3 1 4 2 5 3 17 4 18 5 19 6 15 7 16 8 14 9 11 10 10 11 9 12
REMARK SMILES IDX 22 13 23 14 24 15 25 16 26 17 27 18 8 19 7 20 6 21 2 22 1 23
REMARK SMILES IDX 20 24 21 25 12 26 13 27
REMARK H PARENT
ROOT
ATOM      1  C   UNL     1      -4.268   1.140   0.000  1.00  0.00     0.164 A 
ATOM      2  C   UNL     1      -2.854   1.642   0.000  1.00  0.00     0.098 A 
ATOM      3  C   UNL     1      -1.713   0.668   0.000  1.00  0.00     0.142 A 
ATOM      4  C   UNL     1      -1.985  -0.807   0.000  1.00  0.00     0.069 A 
ATOM      5  C   UNL     1      -3.399  -1.308   0.000  1.00  0.00     0.066 A 
ATOM      6  C   UNL     1      -4.540  -0.335   0.000  1.00  0.00     0.161 A 
ATOM      7  C   UNL     1      -0.844  -1.780   0.000  1.00  0.00     0.204 A 
ATOM      8  O   UNL     1      -1.116  -3.255   0.000  1.00  0.00    -0.288 OA
ATOM      9  C   UNL     1       0.570  -1.278   0.000  1.00  0.00     0.108 A 
ATOM     10  C   UNL     1       1.711  -2.252   0.000  1.00  0.00     0.137 A 
ATOM     11  C   UNL     1       3.125  -1.750   0.000  1.00  0.00     0.094 A 
ATOM     12  C   UNL     1       3.397  -0.275   0.000  1.00  0.00     0.135 A 
ATOM     13  O   UNL     1       4.811   0.227   0.000  1.00  0.00    -0.483 OA
ATOM     14  C   UNL     1       5.083   1.702   0.000  1.00  0.00     0.122 C 
ATOM     15  C   UNL     1       5.843   2.995   0.000  1.00  0.00     0.061 C 
ATOM     16  C   UNL     1       6.488   1.178   0.000  1.00  0.00     0.061 C 
ATOM     17  C   UNL     1       3.942   2.675   0.000  1.00  0.00     0.021 C 
ATOM     18  C   UNL     1       2.528   2.174   0.000  1.00  0.00     0.015 C 
ATOM     19  C   UNL     1       2.256   0.699   0.000  1.00  0.00     0.060 A 
ATOM     20  C   UNL     1       0.842   0.197   0.000  1.00  0.00     0.153 A 
ATOM     21  O   UNL     1      -0.299   1.170   0.000  1.00  0.00    -0.455 OA
ENDROOT
BRANCH   1  22
ATOM     22  O   UNL     1      -5.409   2.113   0.000  1.00  0.00    -0.493 OA
ATOM     23  C   UNL     1      -5.137   3.588   0.000  1.00  0.00     0.278 C 
ENDBRANCH   1  22
BRANCH   6  24
ATOM     24  O   UNL     1      -5.954  -0.837   0.000  1.00  0.00    -0.493 OA
ATOM     25  C   UNL     1      -7.095   0.137   0.000  1.00  0.00     0.278 C 
ENDBRANCH   6  24
BRANCH  10  26
ATOM     26  O   UNL     1       1.439  -3.727   0.000  1.00  0.00    -0.496 OA
ATOM     27  C   UNL     1       2.580  -4.700   0.000  1.00  0.00     0.278 C 
ENDBRANCH  10  26
TORSDOF 3
