REMARK SMILES OC[C@H]1O[C@@](CO)(O[C@H]2O[C@H](CO)[C@@H](O)[C@H](O)[C@H]2O)[C@@H](O)[C@@H]1O
REMARK SMILES IDX 8 1 5 2 3 3 4 4 22 5 20 6 2 7 1 8 23 10 6 12 7 13 21 15 9 17
REMARK SMILES IDX 10 18 18 19 11 20 16 21 14 22 19 23 12 25 13 26 17 28 15 30
REMARK H PARENT 1 9 23 11 7 14 21 16 19 24 13 27 17 29 15 31
ROOT
ATOM      1  O   UNL     1      -0.310   1.126   0.000  1.00  0.00    -0.313 OA
ENDROOT
BRANCH   1   2
ATOM      2  C   UNL     1      -1.416   0.112   0.000  1.00  0.00     0.224 C 
ATOM      3  C   UNL     1      -3.717  -0.658   0.000  1.00  0.00     0.179 C 
ATOM      4  O   UNL     1      -2.287  -1.109   0.000  1.00  0.00    -0.337 OA
ATOM      5  C   UNL     1      -3.730   0.842   0.000  1.00  0.00     0.180 C 
ATOM      6  C   UNL     1      -2.308   1.318   0.000  1.00  0.00     0.208 C 
BRANCH   3   7
ATOM      7  C   UNL     1      -4.923  -1.550   0.000  1.00  0.00     0.191 C 
BRANCH   7   8
ATOM      8  O   UNL     1      -6.299  -0.952   0.000  1.00  0.00    -0.394 OA
ATOM      9  H   UNL     1       0.000   0.000   0.000  1.00  0.00     0.210 HD
ENDBRANCH   7   8
ENDBRANCH   3   7
BRANCH   5  10
ATOM     10  O   UNL     1      -4.952   1.713   0.000  1.00  0.00    -0.387 OA
ATOM     11  H   UNL     1       0.000   0.000   0.000  1.00  0.00     0.211 HD
ENDBRANCH   5  10
BRANCH   2  12
ATOM     12  C   UNL     1      -0.292  -0.882   0.000  1.00  0.00     0.225 C 
BRANCH  12  13
ATOM     13  O   UNL     1      -0.591  -2.352   0.000  1.00  0.00    -0.391 OA
ATOM     14  H   UNL     1       0.000   0.000   0.000  1.00  0.00     0.210 HD
ENDBRANCH  12  13
ENDBRANCH   2  12
BRANCH   6  15
ATOM     15  O   UNL     1      -1.857   2.749   0.000  1.00  0.00    -0.385 OA
ATOM     16  H   UNL     1       0.000   0.000   0.000  1.00  0.00     0.211 HD
ENDBRANCH   6  15
ENDBRANCH   1   2
BRANCH   1  17
ATOM     17  C   UNL     1       1.121   0.675   0.000  1.00  0.00     0.285 C 
ATOM     18  O   UNL     1       1.446  -0.790   0.000  1.00  0.00    -0.341 OA
ATOM     19  C   UNL     1       2.227   1.688   0.000  1.00  0.00     0.202 C 
ATOM     20  C   UNL     1       2.876  -1.241   0.000  1.00  0.00     0.178 C 
ATOM     21  C   UNL     1       3.657   1.237   0.000  1.00  0.00     0.179 C 
ATOM     22  C   UNL     1       3.982  -0.227   0.000  1.00  0.00     0.177 C 
BRANCH  19  23
ATOM     23  O   UNL     1       1.902   3.152   0.000  1.00  0.00    -0.385 OA
ATOM     24  H   UNL     1       0.000   0.000   0.000  1.00  0.00     0.211 HD
ENDBRANCH  19  23
BRANCH  20  25
ATOM     25  C   UNL     1       3.201  -2.705   0.000  1.00  0.00     0.191 C 
BRANCH  25  26
ATOM     26  O   UNL     1       2.095  -3.719   0.000  1.00  0.00    -0.394 OA
ATOM     27  H   UNL     1       0.000   0.000   0.000  1.00  0.00     0.210 HD
ENDBRANCH  25  26
ENDBRANCH  20  25
BRANCH  21  28
ATOM     28  O   UNL     1       4.763   2.251   0.000  1.00  0.00    -0.387 OA
ATOM     29  H   UNL     1       0.000   0.000   0.000  1.00  0.00     0.211 HD
ENDBRANCH  21  28
BRANCH  22  30
ATOM     30  O   UNL     1       5.413  -0.678   0.000  1.00  0.00    -0.387 OA
ATOM     31  H   UNL     1       0.000   0.000   0.000  1.00  0.00     0.211 HD
ENDBRANCH  22  30
ENDBRANCH   1  17
TORSDOF 13
