REMARK SMILES CC(C)=CCNC(=N)N
REMARK SMILES IDX 5 1 4 2 2 3 1 4 3 5 6 6 7 7 9 8 8 12
REMARK H PARENT 6 9 9 10 9 11 8 13
ROOT
ATOM      1  C   UNL     1       0.000   0.000   0.000  1.00  0.00     0.143 C 
ENDROOT
BRANCH   1   2
ATOM      2  C   UNL     1      -1.299   0.750   0.000  1.00  0.00    -0.007 C 
BRANCH   2   3
ATOM      3  C   UNL     1      -2.598   0.000   0.000  1.00  0.00    -0.079 C 
ATOM      4  C   UNL     1      -3.897   0.750   0.000  1.00  0.00     0.039 C 
ATOM      5  C   UNL     1      -2.598  -1.500   0.000  1.00  0.00     0.039 C 
ENDBRANCH   2   3
ENDBRANCH   1   2
BRANCH   1   6
ATOM      6  N   UNL     1       1.299   0.750   0.000  1.00  0.00    -0.353 N 
ATOM      7  C   UNL     1       2.598   0.000   0.000  1.00  0.00     0.185 C 
ATOM      8  N   UNL     1       3.897   0.750   0.000  1.00  0.00    -0.370 N 
ATOM      9  H   UNL     1       0.000   0.000   0.000  1.00  0.00     0.163 HD
ATOM     10  H   UNL     1       0.000   0.000   0.000  1.00  0.00     0.159 HD
ATOM     11  H   UNL     1       0.000   0.000   0.000  1.00  0.00     0.159 HD
BRANCH   7  12
ATOM     12  N   UNL     1       2.598  -1.500   0.000  1.00  0.00    -0.270 NA
ATOM     13  H   UNL     1       0.000   0.000   0.000  1.00  0.00     0.191 HD
ENDBRANCH   7  12
ENDBRANCH   1   6
TORSDOF 4
