REMARK SMILES C=CC(C)=CCC=C(C)C
REMARK SMILES IDX 5 1 3 2 4 3 2 4 1 5 6 6 7 7 8 8 9 9 10 10
REMARK H PARENT
ROOT
ATOM      1  C   UNL     1       0.967   0.410   0.000  1.00  0.00    -0.020 C 
ENDROOT
BRANCH   1   2
ATOM      2  C   UNL     1       2.164  -0.493   0.000  1.00  0.00    -0.055 C 
ATOM      3  C   UNL     1       1.981  -1.982   0.000  1.00  0.00     0.044 C 
BRANCH   2   4
ATOM      4  C   UNL     1       3.545   0.092   0.000  1.00  0.00    -0.005 C 
ATOM      5  C   UNL     1       3.729   1.581   0.000  1.00  0.00     0.009 C 
ENDBRANCH   2   4
ENDBRANCH   1   2
BRANCH   1   6
ATOM      6  C   UNL     1      -0.414  -0.176   0.000  1.00  0.00     0.055 C 
BRANCH   6   7
ATOM      7  C   UNL     1      -1.612   0.728   0.000  1.00  0.00    -0.024 C 
BRANCH   7   8
ATOM      8  C   UNL     1      -2.993   0.142   0.000  1.00  0.00    -0.080 C 
ATOM      9  C   UNL     1      -4.191   1.045   0.000  1.00  0.00     0.039 C 
ATOM     10  C   UNL     1      -3.176  -1.347   0.000  1.00  0.00     0.039 C 
ENDBRANCH   7   8
ENDBRANCH   6   7
ENDBRANCH   1   6
TORSDOF 5
