REMARK SMILES COc1ccc(-c2cc(=O)c3ccc(OC)cc3o2)cc1
REMARK SMILES IDX 7 1 8 2 9 3 10 4 11 5 12 6 13 7 14 8 17 9 18 10 19 11 6 12
REMARK SMILES IDX 3 13 4 14 21 15 5 16 20 17 2 18 1 19 15 20 16 21
REMARK H PARENT
ROOT
ATOM      1  C   UNL     1      -0.606  -0.516   0.000  1.00  0.00     0.138 A 
ATOM      2  C   UNL     1      -0.108  -1.931   0.000  1.00  0.00     0.100 A 
ATOM      3  C   UNL     1       1.366  -2.208   0.000  1.00  0.00     0.193 A 
ATOM      4  O   UNL     1       1.864  -3.623   0.000  1.00  0.00    -0.289 OA
ATOM      5  C   UNL     1       2.343  -1.069   0.000  1.00  0.00     0.065 A 
ATOM      6  C   UNL     1       3.817  -1.346   0.000  1.00  0.00     0.020 A 
ATOM      7  C   UNL     1       4.794  -0.208   0.000  1.00  0.00     0.047 A 
ATOM      8  C   UNL     1       4.296   1.208   0.000  1.00  0.00     0.122 A 
ATOM      9  C   UNL     1       2.822   1.484   0.000  1.00  0.00     0.094 A 
ATOM     10  C   UNL     1       1.845   0.346   0.000  1.00  0.00     0.142 A 
ATOM     11  O   UNL     1       0.371   0.623   0.000  1.00  0.00    -0.456 OA
ENDROOT
BRANCH   1  12
ATOM     12  C   UNL     1      -2.080  -0.239   0.000  1.00  0.00     0.018 A 
ATOM     13  C   UNL     1      -5.028   0.315   0.000  1.00  0.00     0.118 A 
ATOM     14  C   UNL     1      -4.051   1.453   0.000  1.00  0.00     0.047 A 
ATOM     15  C   UNL     1      -4.531  -1.101   0.000  1.00  0.00     0.047 A 
ATOM     16  C   UNL     1      -2.577   1.176   0.000  1.00  0.00     0.016 A 
ATOM     17  C   UNL     1      -3.057  -1.377   0.000  1.00  0.00     0.016 A 
BRANCH  13  18
ATOM     18  O   UNL     1      -6.503   0.591   0.000  1.00  0.00    -0.497 OA
ATOM     19  C   UNL     1      -7.000   2.006   0.000  1.00  0.00     0.278 C 
ENDBRANCH  13  18
ENDBRANCH   1  12
BRANCH   8  20
ATOM     20  O   UNL     1       5.273   2.346   0.000  1.00  0.00    -0.497 OA
ATOM     21  C   UNL     1       6.748   2.069   0.000  1.00  0.00     0.278 C 
ENDBRANCH   8  20
TORSDOF 3
