REMARK SMILES C=CC(=C)CC[C@]1(C)[C@H](C)[C@@H](OC(=O)/C=C/C=C/CCCCC)[C@H](O)[C@@]23C(=C[C@H](O)C[C@@H]12)[C@@H](OC)O[C@@H]3OC(C)=O
REMARK SMILES IDX 15 1 13 2 14 3 12 4 11 5 7 6 9 7 32 8 31 9 26 10 24 11 29 12
REMARK SMILES IDX 27 13 37 14 28 15 33 16 36 17 8 18 10 19 6 20 5 21 3 22 4 23
REMARK SMILES IDX 2 24 1 25 25 26 30 28 38 30 39 31 40 32 41 33 34 34 35 35
REMARK SMILES IDX 16 36 17 37 18 38 19 39 20 40 21 41 22 42 23 43
REMARK H PARENT 25 27 30 29
ROOT
ATOM      1  C   UNL     1      -2.960  -1.261   0.000  1.00  0.00     0.093 C 
ENDROOT
BRANCH   1   2
ATOM      2  C   UNL     1      -1.617  -0.593   0.000  1.00  0.00     0.331 C 
ATOM      3  O   UNL     1      -1.525   0.904   0.000  1.00  0.00    -0.247 OA
BRANCH   2   4
ATOM      4  O   UNL     1      -0.367  -1.422   0.000  1.00  0.00    -0.456 OA
BRANCH   4   5
ATOM      5  C   UNL     1       0.976  -0.753   0.000  1.00  0.00     0.210 C 
ATOM      6  C   UNL     1       2.411   1.413   0.000  1.00  0.00    -0.022 C 
ATOM      7  C   UNL     1       1.068   0.744   0.000  1.00  0.00     0.036 C 
ATOM      8  C   UNL     1       3.662   0.584   0.000  1.00  0.00     0.018 C 
ATOM      9  C   UNL     1       5.004   1.252   0.000  1.00  0.00     0.041 C 
ATOM     10  C   UNL     1       3.569  -0.913   0.000  1.00  0.00     0.092 C 
ATOM     11  C   UNL     1       2.226  -1.582   0.000  1.00  0.00     0.172 C 
ATOM     12  C   UNL     1       6.255   0.424   0.000  1.00  0.00     0.137 C 
ATOM     13  C   UNL     1       4.819  -1.742   0.000  1.00  0.00    -0.000 C 
ATOM     14  C   UNL     1       4.106  -0.782   0.000  1.00  0.00     0.326 C 
ATOM     15  C   UNL     1       6.162  -1.073   0.000  1.00  0.00     0.009 C 
ATOM     16  C   UNL     1       4.731  -1.196   0.000  1.00  0.00     0.282 C 
ATOM     17  O   UNL     1       4.079  -1.501   0.000  1.00  0.00    -0.308 OA
ATOM     18  C   UNL     1       3.444   2.500   0.000  1.00  0.00     0.012 C 
ATOM     19  C   UNL     1      -0.182   1.573   0.000  1.00  0.00     0.012 C 
BRANCH   6  20
ATOM     20  C   UNL     1       1.520   2.619   0.000  1.00  0.00     0.012 C 
BRANCH  20  21
ATOM     21  C   UNL     1       2.119   3.994   0.000  1.00  0.00     0.035 C 
BRANCH  21  22
ATOM     22  C   UNL     1       1.227   5.200   0.000  1.00  0.00    -0.056 C 
ATOM     23  C   UNL     1       1.826   6.576   0.000  1.00  0.00     0.012 C 
BRANCH  22  24
ATOM     24  C   UNL     1      -0.263   5.032   0.000  1.00  0.00    -0.005 C 
ATOM     25  C   UNL     1      -1.155   6.238   0.000  1.00  0.00     0.009 C 
ENDBRANCH  22  24
ENDBRANCH  21  22
ENDBRANCH  20  21
ENDBRANCH   6  20
BRANCH  11  26
ATOM     26  O   UNL     1       1.774  -3.012   0.000  1.00  0.00    -0.388 OA
ATOM     27  H   UNL     1       0.000   0.000   0.000  1.00  0.00     0.211 HD
ENDBRANCH  11  26
BRANCH  12  28
ATOM     28  O   UNL     1       7.597   1.092   0.000  1.00  0.00    -0.389 OA
ATOM     29  H   UNL     1       0.000   0.000   0.000  1.00  0.00     0.211 HD
ENDBRANCH  12  28
BRANCH  14  30
ATOM     30  O   UNL     1       0.949  -1.445   0.000  1.00  0.00    -0.435 OA
BRANCH  30  31
ATOM     31  C   UNL     1      -0.121  -2.495   0.000  1.00  0.00     0.304 C 
ATOM     32  C   UNL     1      -1.566  -2.094   0.000  1.00  0.00     0.139 C 
ATOM     33  O   UNL     1       0.254  -3.948   0.000  1.00  0.00    -0.253 OA
ENDBRANCH  30  31
ENDBRANCH  14  30
BRANCH  16  34
ATOM     34  O   UNL     1       5.351  -4.362   0.000  1.00  0.00    -0.352 OA
ATOM     35  C   UNL     1       4.800  -5.757   0.000  1.00  0.00     0.198 C 
ENDBRANCH  16  34
ENDBRANCH   4   5
ENDBRANCH   2   4
ENDBRANCH   1   2
BRANCH   1  36
ATOM     36  C   UNL     1      -4.210  -0.433   0.000  1.00  0.00     0.007 C 
BRANCH  36  37
ATOM     37  C   UNL     1      -5.553  -1.101   0.000  1.00  0.00    -0.004 C 
BRANCH  37  38
ATOM     38  C   UNL     1      -6.804  -0.273   0.000  1.00  0.00    -0.027 C 
BRANCH  38  39
ATOM     39  C   UNL     1      -8.146  -0.941   0.000  1.00  0.00     0.027 C 
BRANCH  39  40
ATOM     40  C   UNL     1      -9.397  -0.112   0.000  1.00  0.00     0.004 C 
BRANCH  40  41
ATOM     41  C   UNL     1     -10.739  -0.781   0.000  1.00  0.00     0.000 C 
BRANCH  41  42
ATOM     42  C   UNL     1     -11.990   0.048   0.000  1.00  0.00    -0.003 C 
ATOM     43  C   UNL     1     -13.333  -0.621   0.000  1.00  0.00     0.004 C 
ENDBRANCH  41  42
ENDBRANCH  40  41
ENDBRANCH  39  40
ENDBRANCH  38  39
ENDBRANCH  37  38
ENDBRANCH  36  37
ENDBRANCH   1  36
TORSDOF 19
