REMARK SMILES COc1c(O)ccc2oc3ccccc3c(=O)c12
REMARK SMILES IDX 3 1 4 2 6 3 7 4 8 5 18 6 16 7 17 8 15 9 14 10 13 11 12 12
REMARK SMILES IDX 11 13 10 14 9 15 2 16 1 17 5 18
REMARK H PARENT 5 19
ROOT
ATOM      1  C   UNL     1      -2.098  -0.399   0.000  1.00  0.00     0.175 A 
ATOM      2  C   UNL     1      -3.188   0.632   0.000  1.00  0.00     0.158 A 
ATOM      3  C   UNL     1      -2.840   2.091   0.000  1.00  0.00     0.054 A 
ATOM      4  C   UNL     1      -1.403   2.519   0.000  1.00  0.00     0.052 A 
ATOM      5  C   UNL     1      -0.313   1.488   0.000  1.00  0.00     0.142 A 
ATOM      6  C   UNL     1      -0.661   0.029   0.000  1.00  0.00     0.111 A 
ATOM      7  C   UNL     1       0.429  -1.002   0.000  1.00  0.00     0.204 A 
ATOM      8  O   UNL     1       0.081  -2.461   0.000  1.00  0.00    -0.288 OA
ATOM      9  C   UNL     1       1.866  -0.574   0.000  1.00  0.00     0.065 A 
ATOM     10  C   UNL     1       2.956  -1.604   0.000  1.00  0.00     0.016 A 
ATOM     11  C   UNL     1       4.394  -1.176   0.000  1.00  0.00     0.001 A 
ATOM     12  C   UNL     1       4.742   0.283   0.000  1.00  0.00     0.004 A 
ATOM     13  C   UNL     1       3.652   1.314   0.000  1.00  0.00     0.048 A 
ATOM     14  C   UNL     1       2.214   0.886   0.000  1.00  0.00     0.138 A 
ATOM     15  O   UNL     1       1.125   1.916   0.000  1.00  0.00    -0.456 OA
ENDROOT
BRANCH   1  16
ATOM     16  O   UNL     1      -2.446  -1.858   0.000  1.00  0.00    -0.492 OA
ATOM     17  C   UNL     1      -3.884  -2.287   0.000  1.00  0.00     0.278 C 
ENDBRANCH   1  16
BRANCH   2  18
ATOM     18  O   UNL     1      -4.626   0.203   0.000  1.00  0.00    -0.504 OA
ATOM     19  H   UNL     1       0.000   0.000   0.000  1.00  0.00     0.293 HD
ENDBRANCH   2  18
TORSDOF 2
