REMARK SMILES COc1ccc2c(=O)cc(-c3ccccc3)n(C)c2c1
REMARK SMILES IDX 3 1 4 2 5 3 6 4 7 5 8 6 9 7 10 8 17 9 18 10 19 11 20 12 2 13
REMARK SMILES IDX 1 14 11 15 12 16 16 17 13 18 15 19 14 20
REMARK H PARENT
ROOT
ATOM      1  C   UNL     1      -3.734  -0.863   0.000  1.00  0.00     0.120 A 
ATOM      2  C   UNL     1      -4.086   0.595   0.000  1.00  0.00     0.047 A 
ATOM      3  C   UNL     1      -2.999   1.629   0.000  1.00  0.00     0.018 A 
ATOM      4  C   UNL     1      -1.561   1.205   0.000  1.00  0.00     0.046 A 
ATOM      5  C   UNL     1      -0.474   2.239   0.000  1.00  0.00     0.190 A 
ATOM      6  O   UNL     1      -0.826   3.697   0.000  1.00  0.00    -0.289 OA
ATOM      7  C   UNL     1       0.965   1.815   0.000  1.00  0.00     0.079 A 
ATOM      8  C   UNL     1       1.317   0.357   0.000  1.00  0.00     0.052 A 
ATOM      9  N   UNL     1       0.230  -0.677   0.000  1.00  0.00    -0.343 N 
ATOM     10  C   UNL     1       0.583  -2.135   0.000  1.00  0.00     0.150 C 
ATOM     11  C   UNL     1      -1.208  -0.253   0.000  1.00  0.00     0.056 A 
ATOM     12  C   UNL     1      -2.295  -1.287   0.000  1.00  0.00     0.073 A 
ENDROOT
BRANCH   1  13
ATOM     13  O   UNL     1      -4.820  -1.897   0.000  1.00  0.00    -0.497 OA
ATOM     14  C   UNL     1      -6.259  -1.474   0.000  1.00  0.00     0.278 C 
ENDBRANCH   1  13
BRANCH   8  15
ATOM     15  C   UNL     1       2.756  -0.067   0.000  1.00  0.00    -0.002 A 
ATOM     16  C   UNL     1       3.108  -1.525   0.000  1.00  0.00     0.010 A 
ATOM     17  C   UNL     1       3.842   0.967   0.000  1.00  0.00     0.010 A 
ATOM     18  C   UNL     1       4.547  -1.949   0.000  1.00  0.00     0.001 A 
ATOM     19  C   UNL     1       5.281   0.543   0.000  1.00  0.00     0.001 A 
ATOM     20  C   UNL     1       5.633  -0.915   0.000  1.00  0.00     0.000 A 
ENDBRANCH   8  15
TORSDOF 2
