REMARK SMILES COc1cc2c(c(O)c1CC=C(C)C)C(=O)C[C@@](C)(c1ccccc1)O2
REMARK SMILES IDX 10 1 9 2 3 3 4 4 5 5 7 6 6 7 26 8 15 9 18 10 17 11 16 12
REMARK SMILES IDX 19 13 2 14 1 15 8 16 20 18 21 19 25 20 22 21 24 22 23 23
REMARK SMILES IDX 11 24 12 25 13 26 14 27
REMARK H PARENT 8 17
ROOT
ATOM      1  C   UNL     1      -3.963  -0.880   0.000  1.00  0.00     0.070 C 
ENDROOT
BRANCH   1   2
ATOM      2  C   UNL     1      -2.593  -0.270   0.000  1.00  0.00     0.041 A 
ATOM      3  C   UNL     1      -2.436   1.222   0.000  1.00  0.00     0.129 A 
ATOM      4  C   UNL     1      -1.065   1.832   0.000  1.00  0.00     0.094 A 
ATOM      5  C   UNL     1       0.148   0.950   0.000  1.00  0.00     0.138 A 
ATOM      6  C   UNL     1      -1.379  -1.152   0.000  1.00  0.00     0.137 A 
ATOM      7  C   UNL     1      -0.009  -0.542   0.000  1.00  0.00     0.102 A 
ATOM      8  O   UNL     1       1.518   1.560   0.000  1.00  0.00    -0.481 OA
ATOM      9  C   UNL     1       1.205  -1.423   0.000  1.00  0.00     0.174 C 
ATOM     10  C   UNL     1       2.732   0.678   0.000  1.00  0.00     0.138 C 
ATOM     11  C   UNL     1       2.575  -0.813   0.000  1.00  0.00     0.134 C 
ATOM     12  O   UNL     1       1.048  -2.915   0.000  1.00  0.00    -0.294 OA
ATOM     13  C   UNL     1       3.389   2.027   0.000  1.00  0.00     0.062 C 
BRANCH   3  14
ATOM     14  O   UNL     1      -3.649   2.103   0.000  1.00  0.00    -0.496 OA
ATOM     15  C   UNL     1      -3.493   3.595   0.000  1.00  0.00     0.278 C 
ENDBRANCH   3  14
BRANCH   6  16
ATOM     16  O   UNL     1      -1.536  -2.644   0.000  1.00  0.00    -0.507 OA
ATOM     17  H   UNL     1       0.000   0.000   0.000  1.00  0.00     0.293 HD
ENDBRANCH   6  16
BRANCH  10  18
ATOM     18  C   UNL     1       4.174   0.265   0.000  1.00  0.00    -0.004 A 
ATOM     19  C   UNL     1       4.537  -1.190   0.000  1.00  0.00     0.008 A 
ATOM     20  C   UNL     1       5.253   1.307   0.000  1.00  0.00     0.008 A 
ATOM     21  C   UNL     1       5.979  -1.604   0.000  1.00  0.00     0.000 A 
ATOM     22  C   UNL     1       6.695   0.894   0.000  1.00  0.00     0.000 A 
ATOM     23  C   UNL     1       7.058  -0.562   0.000  1.00  0.00     0.000 A 
ENDBRANCH  10  18
ENDBRANCH   1   2
BRANCH   1  24
ATOM     24  C   UNL     1      -5.176   0.001   0.000  1.00  0.00    -0.023 C 
BRANCH  24  25
ATOM     25  C   UNL     1      -6.547  -0.609   0.000  1.00  0.00    -0.080 C 
ATOM     26  C   UNL     1      -7.760   0.273   0.000  1.00  0.00     0.039 C 
ATOM     27  C   UNL     1      -6.704  -2.101   0.000  1.00  0.00     0.039 C 
ENDBRANCH  24  25
ENDBRANCH   1  24
TORSDOF 6
