REMARK SMILES c1cc2c(cc1[C@H]1OC[C@@H]3[C@H]1CO[C@H]3c1ccc3c(c1)OCO3)OCO2
REMARK SMILES IDX 7 1 8 2 9 3 10 4 11 5 12 6 13 7 14 8 6 9 1 10 2 11 3 12 5 13
REMARK SMILES IDX 4 14 26 15 24 16 25 17 15 18 16 19 20 20 17 21 19 22 18 23
REMARK SMILES IDX 21 24 23 25 22 26
REMARK H PARENT
ROOT
ATOM      1  C   UNL     1      -1.808  -0.490   0.000  1.00  0.00     0.154 C 
ATOM      2  O   UNL     1      -1.306  -1.903   0.000  1.00  0.00    -0.373 OA
ATOM      3  C   UNL     1       0.194  -1.863   0.000  1.00  0.00     0.168 C 
ATOM      4  C   UNL     1       0.618  -0.424   0.000  1.00  0.00     0.057 C 
ATOM      5  C   UNL     1      -0.618   0.424   0.000  1.00  0.00     0.057 C 
ATOM      6  C   UNL     1      -0.194   1.863   0.000  1.00  0.00     0.168 C 
ATOM      7  O   UNL     1       1.306   1.903   0.000  1.00  0.00    -0.373 OA
ATOM      8  C   UNL     1       1.808   0.490   0.000  1.00  0.00     0.154 C 
ENDROOT
BRANCH   1   9
ATOM      9  C   UNL     1      -3.246  -0.065   0.000  1.00  0.00    -0.015 A 
ATOM     10  C   UNL     1      -3.598   1.394   0.000  1.00  0.00     0.010 A 
ATOM     11  C   UNL     1      -5.036   1.819   0.000  1.00  0.00     0.051 A 
ATOM     12  C   UNL     1      -6.123   0.785   0.000  1.00  0.00     0.165 A 
ATOM     13  C   UNL     1      -4.334  -1.098   0.000  1.00  0.00     0.057 A 
ATOM     14  C   UNL     1      -5.772  -0.673   0.000  1.00  0.00     0.166 A 
ATOM     15  O   UNL     1      -7.619   0.902   0.000  1.00  0.00    -0.454 OA
ATOM     16  O   UNL     1      -7.051  -1.458   0.000  1.00  0.00    -0.454 OA
ATOM     17  C   UNL     1      -8.192  -0.484   0.000  1.00  0.00     0.468 C 
ENDBRANCH   1   9
BRANCH   8  18
ATOM     18  C   UNL     1       3.246   0.065   0.000  1.00  0.00    -0.015 A 
ATOM     19  C   UNL     1       3.598  -1.394   0.000  1.00  0.00     0.010 A 
ATOM     20  C   UNL     1       4.334   1.098   0.000  1.00  0.00     0.057 A 
ATOM     21  C   UNL     1       5.036  -1.819   0.000  1.00  0.00     0.051 A 
ATOM     22  C   UNL     1       5.772   0.673   0.000  1.00  0.00     0.166 A 
ATOM     23  C   UNL     1       6.123  -0.785   0.000  1.00  0.00     0.165 A 
ATOM     24  O   UNL     1       7.051   1.458   0.000  1.00  0.00    -0.454 OA
ATOM     25  O   UNL     1       7.619  -0.902   0.000  1.00  0.00    -0.454 OA
ATOM     26  C   UNL     1       8.192   0.484   0.000  1.00  0.00     0.468 C 
ENDBRANCH   8  18
TORSDOF 2
