REMARK SMILES COc1cc2c(c3oc4cc(O)c(O)cc4c(=O)c13)C=CC(C)(C)O2
REMARK SMILES IDX 3 1 4 2 5 3 6 4 20 5 21 6 22 7 23 8 24 9 25 10 7 11 19 12
REMARK SMILES IDX 17 13 18 14 16 15 15 16 13 17 11 18 10 19 9 20 8 21 2 22
REMARK SMILES IDX 1 23 14 24 12 26
REMARK H PARENT 14 25 12 27
ROOT
ATOM      1  C   UNL     1       1.011   2.212   0.000  1.00  0.00     0.137 A 
ATOM      2  C   UNL     1       2.466   1.851   0.000  1.00  0.00     0.094 A 
ATOM      3  C   UNL     1       2.881   0.409   0.000  1.00  0.00     0.135 A 
ATOM      4  C   UNL     1       1.841  -0.671   0.000  1.00  0.00     0.060 A 
ATOM      5  C   UNL     1       2.256  -2.112   0.000  1.00  0.00     0.015 C 
ATOM      6  C   UNL     1       3.712  -2.474   0.000  1.00  0.00     0.021 C 
ATOM      7  C   UNL     1       4.752  -1.393   0.000  1.00  0.00     0.122 C 
ATOM      8  C   UNL     1       6.100  -0.734   0.000  1.00  0.00     0.061 C 
ATOM      9  C   UNL     1       5.635  -2.606   0.000  1.00  0.00     0.061 C 
ATOM     10  O   UNL     1       4.337   0.048   0.000  1.00  0.00    -0.483 OA
ATOM     11  C   UNL     1       0.385  -0.310   0.000  1.00  0.00     0.153 A 
ATOM     12  C   UNL     1      -0.030   1.132   0.000  1.00  0.00     0.108 A 
ATOM     13  C   UNL     1      -1.486   1.493   0.000  1.00  0.00     0.204 A 
ATOM     14  O   UNL     1      -1.901   2.934   0.000  1.00  0.00    -0.288 OA
ATOM     15  C   UNL     1      -2.527   0.413   0.000  1.00  0.00     0.069 A 
ATOM     16  C   UNL     1      -3.983   0.774   0.000  1.00  0.00     0.066 A 
ATOM     17  C   UNL     1      -5.024  -0.306   0.000  1.00  0.00     0.158 A 
ATOM     18  C   UNL     1      -4.608  -1.747   0.000  1.00  0.00     0.161 A 
ATOM     19  C   UNL     1      -3.153  -2.109   0.000  1.00  0.00     0.098 A 
ATOM     20  C   UNL     1      -2.112  -1.028   0.000  1.00  0.00     0.142 A 
ATOM     21  O   UNL     1      -0.656  -1.390   0.000  1.00  0.00    -0.455 OA
ENDROOT
BRANCH   1  22
ATOM     22  O   UNL     1       0.596   3.653   0.000  1.00  0.00    -0.496 OA
ATOM     23  C   UNL     1       1.636   4.734   0.000  1.00  0.00     0.278 C 
ENDBRANCH   1  22
BRANCH  17  24
ATOM     24  O   UNL     1      -6.479   0.055   0.000  1.00  0.00    -0.504 OA
ATOM     25  H   UNL     1       0.000   0.000   0.000  1.00  0.00     0.293 HD
ENDBRANCH  17  24
BRANCH  18  26
ATOM     26  O   UNL     1      -5.649  -2.828   0.000  1.00  0.00    -0.504 OA
ATOM     27  H   UNL     1       0.000   0.000   0.000  1.00  0.00     0.293 HD
ENDBRANCH  18  26
TORSDOF 3
