REMARK SMILES CC(C)(O)[C@H]1OC[C@@H]([C@@H]2CC[C@]3(C)C4=CC[C@H]5C(C)(C)C(=O)CC[C@]5(C)[C@H]4CC[C@@]23C)C[C@@H]1O
REMARK SMILES IDX 5 1 6 2 7 3 8 4 32 5 33 6 2 7 1 8 3 9 4 10 34 12 9 14 10 15
REMARK SMILES IDX 30 16 11 17 29 18 12 19 28 20 14 21 27 22 15 23 25 24 16 25
REMARK SMILES IDX 24 26 17 27 23 28 18 29 21 30 31 31 13 32 26 33 19 34 20 35
REMARK SMILES IDX 22 36
REMARK H PARENT 4 11 34 13
ROOT
ATOM      1  C   UNL     1       6.021   0.332   0.000  1.00  0.00     0.178 C 
ATOM      2  O   UNL     1       5.851  -1.159   0.000  1.00  0.00    -0.372 OA
ATOM      3  C   UNL     1       4.475  -1.757   0.000  1.00  0.00     0.164 C 
ATOM      4  C   UNL     1       3.269  -0.865   0.000  1.00  0.00     0.021 C 
ATOM      5  C   UNL     1       3.439   0.625   0.000  1.00  0.00     0.041 C 
ATOM      6  C   UNL     1       4.815   1.224   0.000  1.00  0.00     0.146 C 
ENDROOT
BRANCH   1   7
ATOM      7  C   UNL     1       7.396   0.930   0.000  1.00  0.00     0.088 C 
ATOM      8  C   UNL     1       6.798   2.305   0.000  1.00  0.00     0.045 C 
ATOM      9  C   UNL     1       7.994  -0.446   0.000  1.00  0.00     0.045 C 
BRANCH   7  10
ATOM     10  O   UNL     1       8.771   1.528   0.000  1.00  0.00    -0.388 OA
ATOM     11  H   UNL     1       0.000   0.000   0.000  1.00  0.00     0.211 HD
ENDBRANCH   7  10
ENDBRANCH   1   7
BRANCH   6  12
ATOM     12  O   UNL     1       4.984   2.714   0.000  1.00  0.00    -0.390 OA
ATOM     13  H   UNL     1       0.000   0.000   0.000  1.00  0.00     0.211 HD
ENDBRANCH   6  12
BRANCH   4  14
ATOM     14  C   UNL     1       1.894  -1.463   0.000  1.00  0.00     0.001 C 
ATOM     15  C   UNL     1       1.569  -2.928   0.000  1.00  0.00     0.005 C 
ATOM     16  C   UNL     1       0.601  -0.702   0.000  1.00  0.00    -0.020 C 
ATOM     17  C   UNL     1       0.076  -3.071   0.000  1.00  0.00     0.012 C 
ATOM     18  C   UNL     1       0.302   0.768   0.000  1.00  0.00     0.008 C 
ATOM     19  C   UNL     1      -0.522  -1.696   0.000  1.00  0.00    -0.006 C 
ATOM     20  C   UNL     1      -1.120   1.244   0.000  1.00  0.00     0.009 C 
ATOM     21  C   UNL     1      -1.944  -1.220   0.000  1.00  0.00    -0.064 C 
ATOM     22  C   UNL     1      -2.244   0.250   0.000  1.00  0.00     0.021 C 
ATOM     23  C   UNL     1      -3.068  -2.214   0.000  1.00  0.00    -0.027 C 
ATOM     24  C   UNL     1      -3.666   0.726   0.000  1.00  0.00    -0.022 C 
ATOM     25  C   UNL     1      -4.490  -1.738   0.000  1.00  0.00     0.032 C 
ATOM     26  C   UNL     1      -3.966   2.195   0.000  1.00  0.00     0.015 C 
ATOM     27  C   UNL     1      -4.790  -0.269   0.000  1.00  0.00     0.012 C 
ATOM     28  C   UNL     1      -5.388   2.671   0.000  1.00  0.00     0.077 C 
ATOM     29  C   UNL     1      -6.212   0.207   0.000  1.00  0.00     0.027 C 
ATOM     30  C   UNL     1      -6.511   1.677   0.000  1.00  0.00     0.138 C 
ATOM     31  C   UNL     1       1.822   0.169   0.000  1.00  0.00     0.012 C 
ATOM     32  C   UNL     1      -1.535  -2.802   0.000  1.00  0.00     0.017 C 
ATOM     33  C   UNL     1      -2.543   1.720   0.000  1.00  0.00     0.012 C 
ATOM     34  C   UNL     1      -7.712   0.168   0.000  1.00  0.00     0.020 C 
ATOM     35  C   UNL     1      -6.434  -1.276   0.000  1.00  0.00     0.020 C 
ATOM     36  O   UNL     1      -7.934   2.153   0.000  1.00  0.00    -0.299 OA
ENDBRANCH   4  14
TORSDOF 4
