REMARK SMILES COc1ccc(-c2cc(=O)c3cc(OC)c(OC)c(OC)c3o2)cc1OC
REMARK SMILES IDX 7 1 8 2 9 3 10 4 11 5 12 6 13 7 16 8 19 9 22 10 23 11 6 12
REMARK SMILES IDX 3 13 4 14 25 15 5 16 24 17 2 18 1 19 26 20 27 21 20 22 21 23
REMARK SMILES IDX 17 24 18 25 14 26 15 27
REMARK H PARENT
ROOT
ATOM      1  C   UNL     1      -0.886  -0.435   0.000  1.00  0.00     0.138 A 
ATOM      2  C   UNL     1      -0.545  -1.896   0.000  1.00  0.00     0.100 A 
ATOM      3  C   UNL     1       0.891  -2.331   0.000  1.00  0.00     0.193 A 
ATOM      4  O   UNL     1       1.232  -3.791   0.000  1.00  0.00    -0.289 OA
ATOM      5  C   UNL     1       1.985  -1.305   0.000  1.00  0.00     0.073 A 
ATOM      6  C   UNL     1       3.421  -1.739   0.000  1.00  0.00     0.066 A 
ATOM      7  C   UNL     1       4.515  -0.713   0.000  1.00  0.00     0.165 A 
ATOM      8  C   UNL     1       4.173   0.747   0.000  1.00  0.00     0.207 A 
ATOM      9  C   UNL     1       2.738   1.182   0.000  1.00  0.00     0.208 A 
ATOM     10  C   UNL     1       1.643   0.156   0.000  1.00  0.00     0.184 A 
ATOM     11  O   UNL     1       0.208   0.591   0.000  1.00  0.00    -0.452 OA
ENDROOT
BRANCH   1  12
ATOM     12  C   UNL     1      -2.322  -0.001   0.000  1.00  0.00     0.021 A 
ATOM     13  C   UNL     1      -5.193   0.869   0.000  1.00  0.00     0.160 A 
ATOM     14  C   UNL     1      -4.099   1.895   0.000  1.00  0.00     0.051 A 
ATOM     15  C   UNL     1      -4.852  -0.592   0.000  1.00  0.00     0.161 A 
ATOM     16  C   UNL     1      -2.663   1.460   0.000  1.00  0.00     0.016 A 
ATOM     17  C   UNL     1      -3.416  -1.027   0.000  1.00  0.00     0.062 A 
BRANCH  13  18
ATOM     18  O   UNL     1      -6.629   1.303   0.000  1.00  0.00    -0.493 OA
ATOM     19  C   UNL     1      -6.970   2.764   0.000  1.00  0.00     0.278 C 
ENDBRANCH  13  18
BRANCH  15  20
ATOM     20  O   UNL     1      -5.946  -1.618   0.000  1.00  0.00    -0.493 OA
ATOM     21  C   UNL     1      -5.605  -3.079   0.000  1.00  0.00     0.278 C 
ENDBRANCH  15  20
ENDBRANCH   1  12
BRANCH   9  22
ATOM     22  O   UNL     1       2.396   2.643   0.000  1.00  0.00    -0.490 OA
ATOM     23  C   UNL     1       3.491   3.668   0.000  1.00  0.00     0.278 C 
ENDBRANCH   9  22
BRANCH   8  24
ATOM     24  O   UNL     1       5.268   1.773   0.000  1.00  0.00    -0.490 OA
ATOM     25  C   UNL     1       4.926   3.234   0.000  1.00  0.00     0.278 C 
ENDBRANCH   8  24
BRANCH   7  26
ATOM     26  O   UNL     1       5.950  -1.148   0.000  1.00  0.00    -0.493 OA
ATOM     27  C   UNL     1       6.292  -2.609   0.000  1.00  0.00     0.278 C 
ENDBRANCH   7  26
TORSDOF 6
