REMARK SMILES COc1cc2oc(-c3ccc(O)c(O)c3)cc(=O)c2c(O)c1O
REMARK SMILES IDX 3 1 4 2 5 3 19 4 20 5 22 6 17 7 18 8 16 9 7 10 6 11 2 12
REMARK SMILES IDX 1 13 23 14 21 16 8 18 9 19 15 20 10 21 13 22 11 23 14 24
REMARK SMILES IDX 12 26
REMARK H PARENT 23 15 21 17 14 25 12 27
ROOT
ATOM      1  C   UNL     1      -3.766   1.380   0.000  1.00  0.00     0.168 A 
ATOM      2  C   UNL     1      -2.283   1.601   0.000  1.00  0.00     0.098 A 
ATOM      3  C   UNL     1      -1.349   0.427   0.000  1.00  0.00     0.146 A 
ATOM      4  C   UNL     1      -1.900  -0.968   0.000  1.00  0.00     0.111 A 
ATOM      5  C   UNL     1      -3.383  -1.190   0.000  1.00  0.00     0.176 A 
ATOM      6  C   UNL     1      -4.317  -0.015   0.000  1.00  0.00     0.201 A 
ATOM      7  C   UNL     1      -0.966  -2.143   0.000  1.00  0.00     0.197 A 
ATOM      8  O   UNL     1      -1.517  -3.538   0.000  1.00  0.00    -0.289 OA
ATOM      9  C   UNL     1       0.517  -1.921   0.000  1.00  0.00     0.100 A 
ATOM     10  C   UNL     1       1.067  -0.526   0.000  1.00  0.00     0.138 A 
ATOM     11  O   UNL     1       0.134   0.648   0.000  1.00  0.00    -0.456 OA
ENDROOT
BRANCH   1  12
ATOM     12  O   UNL     1      -4.700   2.554   0.000  1.00  0.00    -0.493 OA
ATOM     13  C   UNL     1      -4.149   3.950   0.000  1.00  0.00     0.278 C 
ENDBRANCH   1  12
BRANCH   6  14
ATOM     14  O   UNL     1      -5.800  -0.236   0.000  1.00  0.00    -0.502 OA
ATOM     15  H   UNL     1       0.000   0.000   0.000  1.00  0.00     0.293 HD
ENDBRANCH   6  14
BRANCH   5  16
ATOM     16  O   UNL     1      -3.934  -2.585   0.000  1.00  0.00    -0.504 OA
ATOM     17  H   UNL     1       0.000   0.000   0.000  1.00  0.00     0.293 HD
ENDBRANCH   5  16
BRANCH  10  18
ATOM     18  C   UNL     1       2.551  -0.305   0.000  1.00  0.00     0.021 A 
ATOM     19  C   UNL     1       3.484  -1.479   0.000  1.00  0.00     0.016 A 
ATOM     20  C   UNL     1       3.101   1.091   0.000  1.00  0.00     0.062 A 
ATOM     21  C   UNL     1       4.968  -1.258   0.000  1.00  0.00     0.051 A 
ATOM     22  C   UNL     1       4.585   1.312   0.000  1.00  0.00     0.158 A 
ATOM     23  C   UNL     1       5.518   0.137   0.000  1.00  0.00     0.157 A 
BRANCH  22  24
ATOM     24  O   UNL     1       5.135   2.707   0.000  1.00  0.00    -0.504 OA
ATOM     25  H   UNL     1       0.000   0.000   0.000  1.00  0.00     0.293 HD
ENDBRANCH  22  24
BRANCH  23  26
ATOM     26  O   UNL     1       7.002   0.359   0.000  1.00  0.00    -0.504 OA
ATOM     27  H   UNL     1       0.000   0.000   0.000  1.00  0.00     0.293 HD
ENDBRANCH  23  26
ENDBRANCH  10  18
TORSDOF 6
