REMARK SMILES COc1ccc(-c2oc3c(OC)c(OC)c(OC)c(OC)c3c(=O)c2OC)cc1OC
REMARK SMILES IDX 7 1 25 2 23 3 24 4 22 5 19 6 16 7 13 8 10 9 9 10 8 11 6 12
REMARK SMILES IDX 3 13 4 14 29 15 5 16 28 17 2 18 1 19 30 20 31 21 26 22 27 23
REMARK SMILES IDX 11 24 12 25 20 26 21 27 14 28 15 29 17 30 18 31
REMARK H PARENT
ROOT
ATOM      1  C   UNL     1      -0.986  -0.206   0.000  1.00  0.00     0.181 A 
ATOM      2  C   UNL     1      -0.608  -1.658   0.000  1.00  0.00     0.210 A 
ATOM      3  C   UNL     1       0.838  -2.057   0.000  1.00  0.00     0.239 A 
ATOM      4  O   UNL     1       1.216  -3.508   0.000  1.00  0.00    -0.285 OA
ATOM      5  C   UNL     1       1.907  -1.004   0.000  1.00  0.00     0.119 A 
ATOM      6  C   UNL     1       3.353  -1.402   0.000  1.00  0.00     0.180 A 
ATOM      7  C   UNL     1       4.421  -0.349   0.000  1.00  0.00     0.208 A 
ATOM      8  C   UNL     1       4.043   1.102   0.000  1.00  0.00     0.211 A 
ATOM      9  C   UNL     1       2.597   1.501   0.000  1.00  0.00     0.209 A 
ATOM     10  C   UNL     1       1.529   0.448   0.000  1.00  0.00     0.188 A 
ATOM     11  O   UNL     1       0.083   0.847   0.000  1.00  0.00    -0.448 OA
ENDROOT
BRANCH   1  12
ATOM     12  C   UNL     1      -2.432   0.192   0.000  1.00  0.00     0.025 A 
ATOM     13  C   UNL     1      -5.324   0.989   0.000  1.00  0.00     0.160 A 
ATOM     14  C   UNL     1      -4.255   2.042   0.000  1.00  0.00     0.051 A 
ATOM     15  C   UNL     1      -4.946  -0.462   0.000  1.00  0.00     0.161 A 
ATOM     16  C   UNL     1      -2.809   1.644   0.000  1.00  0.00     0.016 A 
ATOM     17  C   UNL     1      -3.500  -0.861   0.000  1.00  0.00     0.062 A 
BRANCH  13  18
ATOM     18  O   UNL     1      -6.770   1.388   0.000  1.00  0.00    -0.493 OA
ATOM     19  C   UNL     1      -7.148   2.840   0.000  1.00  0.00     0.278 C 
ENDBRANCH  13  18
BRANCH  15  20
ATOM     20  O   UNL     1      -6.014  -1.515   0.000  1.00  0.00    -0.493 OA
ATOM     21  C   UNL     1      -7.460  -1.117   0.000  1.00  0.00     0.278 C 
ENDBRANCH  15  20
ENDBRANCH   1  12
BRANCH   2  22
ATOM     22  O   UNL     1      -1.676  -2.711   0.000  1.00  0.00    -0.490 OA
ATOM     23  C   UNL     1      -3.122  -2.313   0.000  1.00  0.00     0.278 C 
ENDBRANCH   2  22
BRANCH   9  24
ATOM     24  O   UNL     1       2.219   2.953   0.000  1.00  0.00    -0.490 OA
ATOM     25  C   UNL     1       3.288   4.006   0.000  1.00  0.00     0.278 C 
ENDBRANCH   9  24
BRANCH   6  26
ATOM     26  O   UNL     1       3.731  -2.854   0.000  1.00  0.00    -0.492 OA
ATOM     27  C   UNL     1       5.177  -3.252   0.000  1.00  0.00     0.278 C 
ENDBRANCH   6  26
BRANCH   8  28
ATOM     28  O   UNL     1       5.111   2.155   0.000  1.00  0.00    -0.490 OA
ATOM     29  C   UNL     1       4.734   3.607   0.000  1.00  0.00     0.279 C 
ENDBRANCH   8  28
BRANCH   7  30
ATOM     30  O   UNL     1       5.867  -0.748   0.000  1.00  0.00    -0.490 OA
ATOM     31  C   UNL     1       6.935   0.305   0.000  1.00  0.00     0.278 C 
ENDBRANCH   7  30
TORSDOF 8
