REMARK SMILES COC1=CC(=O)C([C@@H]2COc3cc(O)ccc3C2)=CC1=O
REMARK SMILES IDX 8 1 9 2 10 3 11 4 12 5 13 6 15 7 16 8 17 9 18 10 7 11 3 12
REMARK SMILES IDX 4 13 20 14 5 15 19 16 21 17 6 18 2 19 1 20 14 21
REMARK H PARENT 14 22
ROOT
ATOM      1  C   UNL     1       0.120  -0.453   0.000  1.00  0.00     0.066 C 
ATOM      2  C   UNL     1       0.694  -1.839   0.000  1.00  0.00     0.238 C 
ATOM      3  O   UNL     1       2.180  -2.035   0.000  1.00  0.00    -0.493 OA
ATOM      4  C   UNL     1       3.094  -0.846   0.000  1.00  0.00     0.126 A 
ATOM      5  C   UNL     1       4.581  -1.043   0.000  1.00  0.00     0.092 A 
ATOM      6  C   UNL     1       5.495   0.147   0.000  1.00  0.00     0.119 A 
ATOM      7  C   UNL     1       4.922   1.533   0.000  1.00  0.00     0.047 A 
ATOM      8  C   UNL     1       3.435   1.730   0.000  1.00  0.00     0.011 A 
ATOM      9  C   UNL     1       2.521   0.540   0.000  1.00  0.00    -0.005 A 
ATOM     10  C   UNL     1       1.034   0.737   0.000  1.00  0.00     0.051 C 
ENDROOT
BRANCH   1  11
ATOM     11  C   UNL     1      -1.367  -0.256   0.000  1.00  0.00     0.010 C 
ATOM     12  C   UNL     1      -4.341   0.137   0.000  1.00  0.00     0.169 C 
ATOM     13  C   UNL     1      -3.427   1.327   0.000  1.00  0.00     0.102 C 
ATOM     14  C   UNL     1      -3.768  -1.249   0.000  1.00  0.00     0.220 C 
ATOM     15  C   UNL     1      -1.940   1.130   0.000  1.00  0.00     0.186 C 
ATOM     16  C   UNL     1      -2.281  -1.446   0.000  1.00  0.00     0.064 C 
ATOM     17  O   UNL     1      -4.681  -2.438   0.000  1.00  0.00    -0.286 OA
ATOM     18  O   UNL     1      -1.026   2.320   0.000  1.00  0.00    -0.289 OA
BRANCH  12  19
ATOM     19  O   UNL     1      -5.828   0.334   0.000  1.00  0.00    -0.493 OA
ATOM     20  C   UNL     1      -6.401   1.720   0.000  1.00  0.00     0.278 C 
ENDBRANCH  12  19
ENDBRANCH   1  11
BRANCH   6  21
ATOM     21  O   UNL     1       6.982  -0.050   0.000  1.00  0.00    -0.508 OA
ATOM     22  H   UNL     1       0.000   0.000   0.000  1.00  0.00     0.293 HD
ENDBRANCH   6  21
TORSDOF 3
