REMARK SMILES CC1(C)CC[C@]2(C(=O)O)CC[C@]3(C)C(=CCC4[C@@]5(C)C[C@@H](O)[C@@H](O)C(C)(C)C5CC[C@]43C)C2C1
REMARK SMILES IDX 1 1 2 2 3 3 4 4 5 5 6 6 10 7 11 8 12 9 13 10 14 11 15 12
REMARK SMILES IDX 16 13 17 14 18 15 19 16 20 17 21 18 23 19 25 20 26 21 27 22
REMARK SMILES IDX 28 23 29 24 30 25 31 26 32 27 33 28 34 29 7 30 8 31 9 32
REMARK SMILES IDX 22 34 24 36
REMARK H PARENT 9 33 22 35 24 37
ROOT
ATOM      1  C   UNL     1      -4.969  -3.407   0.000  1.00  0.00     0.011 C 
ATOM      2  C   UNL     1      -5.258  -1.935   0.000  1.00  0.00    -0.035 C 
ATOM      3  C   UNL     1      -6.657  -2.475   0.000  1.00  0.00     0.011 C 
ATOM      4  C   UNL     1      -6.033  -0.651   0.000  1.00  0.00     0.007 C 
ATOM      5  C   UNL     1      -5.308   0.662   0.000  1.00  0.00     0.020 C 
ATOM      6  C   UNL     1      -3.808   0.691   0.000  1.00  0.00     0.074 C 
ATOM      7  C   UNL     1      -3.083   2.004   0.000  1.00  0.00     0.020 C 
ATOM      8  C   UNL     1      -1.583   2.033   0.000  1.00  0.00     0.013 C 
ATOM      9  C   UNL     1      -0.809   0.749   0.000  1.00  0.00    -0.006 C 
ATOM     10  C   UNL     1      -0.034  -0.536   0.000  1.00  0.00     0.017 C 
ATOM     11  C   UNL     1      -1.534  -0.564   0.000  1.00  0.00    -0.063 C 
ATOM     12  C   UNL     1      -0.759  -1.849   0.000  1.00  0.00    -0.027 C 
ATOM     13  C   UNL     1       0.741  -1.820   0.000  1.00  0.00     0.032 C 
ATOM     14  C   UNL     1       1.466  -0.507   0.000  1.00  0.00     0.006 C 
ATOM     15  C   UNL     1       2.966  -0.478   0.000  1.00  0.00    -0.023 C 
ATOM     16  C   UNL     1       2.241  -1.791   0.000  1.00  0.00     0.012 C 
ATOM     17  C   UNL     1       3.740  -1.763   0.000  1.00  0.00     0.042 C 
ATOM     18  C   UNL     1       5.240  -1.734   0.000  1.00  0.00     0.144 C 
ATOM     19  C   UNL     1       5.965  -0.421   0.000  1.00  0.00     0.149 C 
ATOM     20  C   UNL     1       5.190   0.864   0.000  1.00  0.00    -0.003 C 
ATOM     21  C   UNL     1       4.902   2.336   0.000  1.00  0.00     0.014 C 
ATOM     22  C   UNL     1       6.590   1.404   0.000  1.00  0.00     0.014 C 
ATOM     23  C   UNL     1       3.691   0.835   0.000  1.00  0.00     0.004 C 
ATOM     24  C   UNL     1       2.916   2.119   0.000  1.00  0.00     0.005 C 
ATOM     25  C   UNL     1       1.416   2.091   0.000  1.00  0.00     0.008 C 
ATOM     26  C   UNL     1       0.691   0.777   0.000  1.00  0.00    -0.020 C 
ATOM     27  C   UNL     1      -0.084   2.062   0.000  1.00  0.00     0.012 C 
ATOM     28  C   UNL     1      -3.033  -0.593   0.000  1.00  0.00     0.033 C 
ATOM     29  C   UNL     1      -3.758  -1.906   0.000  1.00  0.00     0.015 C 
ENDROOT
BRANCH   6  30
ATOM     30  C   UNL     1      -4.583   1.976   0.000  1.00  0.00     0.310 C 
ATOM     31  O   UNL     1      -6.083   1.947   0.000  1.00  0.00    -0.252 OA
BRANCH  30  32
ATOM     32  O   UNL     1      -3.858   3.289   0.000  1.00  0.00    -0.481 OA
ATOM     33  H   UNL     1       0.000   0.000   0.000  1.00  0.00     0.296 HD
ENDBRANCH  30  32
ENDBRANCH   6  30
BRANCH  18  34
ATOM     34  O   UNL     1       6.015  -3.018   0.000  1.00  0.00    -0.390 OA
ATOM     35  H   UNL     1       0.000   0.000   0.000  1.00  0.00     0.211 HD
ENDBRANCH  18  34
BRANCH  19  36
ATOM     36  O   UNL     1       7.465  -0.392   0.000  1.00  0.00    -0.390 OA
ATOM     37  H   UNL     1       0.000   0.000   0.000  1.00  0.00     0.211 HD
ENDBRANCH  19  36
TORSDOF 4
