REMARK SMILES CNCCc1c[nH]c2ccccc12
REMARK SMILES IDX 3 1 2 2 1 3 4 5 5 6 6 7 13 8 7 9 12 10 8 11 11 12 9 13 10 14
REMARK H PARENT 2 4 7 15
ROOT
ATOM      1  C   UNL     1      -3.059  -0.049   0.000  1.00  0.00     0.085 C 
ENDROOT
BRANCH   1   2
ATOM      2  N   UNL     1      -4.295   0.800   0.000  1.00  0.00    -0.319 NA
ATOM      3  C   UNL     1      -5.649   0.154   0.000  1.00  0.00     0.101 C 
ATOM      4  H   UNL     1       0.000   0.000   0.000  1.00  0.00     0.122 HD
ENDBRANCH   1   2
BRANCH   1   5
ATOM      5  C   UNL     1      -1.705   0.598   0.000  1.00  0.00     0.053 C 
BRANCH   5   6
ATOM      6  C   UNL     1      -0.468  -0.252   0.000  1.00  0.00    -0.021 A 
ATOM      7  C   UNL     1      -0.429  -1.751   0.000  1.00  0.00     0.087 A 
ATOM      8  C   UNL     1       0.945   0.250   0.000  1.00  0.00     0.003 A 
ATOM      9  N   UNL     1       1.010  -2.177   0.000  1.00  0.00    -0.361 N 
ATOM     10  C   UNL     1       1.519   1.636   0.000  1.00  0.00     0.010 A 
ATOM     11  C   UNL     1       1.859  -0.940   0.000  1.00  0.00     0.046 A 
ATOM     12  C   UNL     1       3.006   1.832   0.000  1.00  0.00     0.001 A 
ATOM     13  C   UNL     1       3.346  -0.744   0.000  1.00  0.00     0.026 A 
ATOM     14  C   UNL     1       3.920   0.642   0.000  1.00  0.00     0.002 A 
ATOM     15  H   UNL     1       0.000   0.000   0.000  1.00  0.00     0.166 HD
ENDBRANCH   5   6
ENDBRANCH   1   5
TORSDOF 3
