REMARK SMILES COc1c(O)c(CC=C(C)C)c(O)c2c(=O)c3c(CC=C(C)C)ccc(O)c3[nH]c12
REMARK SMILES IDX 3 1 4 2 6 3 12 4 14 5 30 6 29 7 28 8 26 9 25 10 24 11 18 12
REMARK SMILES IDX 17 13 15 14 16 15 2 17 1 18 5 19 7 21 8 22 9 23 10 24 11 25
REMARK SMILES IDX 13 26 27 28 19 30 20 31 21 32 22 33 23 34
REMARK H PARENT 29 16 5 20 13 27 27 29
ROOT
ATOM      1  C   UNL     1      -2.134  -2.399   0.000  1.00  0.00     0.185 A 
ATOM      2  C   UNL     1      -3.315  -1.473   0.000  1.00  0.00     0.167 A 
ATOM      3  C   UNL     1      -3.104   0.012   0.000  1.00  0.00     0.044 A 
ATOM      4  C   UNL     1      -1.712   0.572   0.000  1.00  0.00     0.136 A 
ATOM      5  C   UNL     1      -0.531  -0.354   0.000  1.00  0.00     0.092 A 
ATOM      6  C   UNL     1      -0.742  -1.839   0.000  1.00  0.00     0.100 A 
ATOM      7  N   UNL     1       0.438  -2.764   0.000  1.00  0.00    -0.348 N 
ATOM      8  C   UNL     1       1.830  -2.204   0.000  1.00  0.00     0.093 A 
ATOM      9  C   UNL     1       3.010  -3.130   0.000  1.00  0.00     0.139 A 
ATOM     10  C   UNL     1       4.402  -2.570   0.000  1.00  0.00     0.049 A 
ATOM     11  C   UNL     1       4.613  -1.085   0.000  1.00  0.00     0.009 A 
ATOM     12  C   UNL     1       3.433  -0.160   0.000  1.00  0.00    -0.031 A 
ATOM     13  C   UNL     1       2.041  -0.719   0.000  1.00  0.00     0.054 A 
ATOM     14  C   UNL     1       0.860   0.206   0.000  1.00  0.00     0.201 A 
ATOM     15  O   UNL     1       1.071   1.691   0.000  1.00  0.00    -0.288 OA
ATOM     16  H   UNL     1       0.000   0.000   0.000  1.00  0.00     0.167 HD
ENDROOT
BRANCH   1  17
ATOM     17  O   UNL     1      -2.345  -3.884   0.000  1.00  0.00    -0.491 OA
ATOM     18  C   UNL     1      -3.737  -4.444   0.000  1.00  0.00     0.278 C 
ENDBRANCH   1  17
BRANCH   2  19
ATOM     19  O   UNL     1      -4.706  -2.033   0.000  1.00  0.00    -0.504 OA
ATOM     20  H   UNL     1       0.000   0.000   0.000  1.00  0.00     0.293 HD
ENDBRANCH   2  19
BRANCH   3  21
ATOM     21  C   UNL     1      -4.284   0.937   0.000  1.00  0.00     0.070 C 
BRANCH  21  22
ATOM     22  C   UNL     1      -4.073   2.422   0.000  1.00  0.00    -0.023 C 
BRANCH  22  23
ATOM     23  C   UNL     1      -5.254   3.348   0.000  1.00  0.00    -0.080 C 
ATOM     24  C   UNL     1      -5.043   4.833   0.000  1.00  0.00     0.039 C 
ATOM     25  C   UNL     1      -6.645   2.788   0.000  1.00  0.00     0.039 C 
ENDBRANCH  22  23
ENDBRANCH  21  22
ENDBRANCH   3  21
BRANCH   4  26
ATOM     26  O   UNL     1      -1.501   2.057   0.000  1.00  0.00    -0.507 OA
ATOM     27  H   UNL     1       0.000   0.000   0.000  1.00  0.00     0.293 HD
ENDBRANCH   4  26
BRANCH   9  28
ATOM     28  O   UNL     1       2.799  -4.615   0.000  1.00  0.00    -0.506 OA
ATOM     29  H   UNL     1       0.000   0.000   0.000  1.00  0.00     0.293 HD
ENDBRANCH   9  28
BRANCH  12  30
ATOM     30  C   UNL     1       3.643   1.326   0.000  1.00  0.00     0.063 C 
BRANCH  30  31
ATOM     31  C   UNL     1       5.035   1.885   0.000  1.00  0.00    -0.024 C 
BRANCH  31  32
ATOM     32  C   UNL     1       5.246   3.370   0.000  1.00  0.00    -0.080 C 
ATOM     33  C   UNL     1       6.638   3.930   0.000  1.00  0.00     0.039 C 
ATOM     34  C   UNL     1       4.066   4.296   0.000  1.00  0.00     0.039 C 
ENDBRANCH  31  32
ENDBRANCH  30  31
ENDBRANCH  12  30
TORSDOF 10
