REMARK SMILES COc1c(O)cc(CCC(=O)c2c(O)cc3c(c2O)CCC(C)(C)O3)cc1CC=C(C)C
REMARK SMILES IDX 8 1 7 2 3 3 4 4 27 5 6 6 26 7 2 8 1 9 5 10 28 12 29 13 30 14
REMARK SMILES IDX 31 15 32 16 9 17 10 18 11 19 12 20 13 21 18 22 15 23 17 24
REMARK SMILES IDX 16 25 20 26 25 27 21 28 22 29 23 30 24 31 14 32 19 34
REMARK H PARENT 5 11 14 33 19 35
ROOT
ATOM      1  C   UNL     1      -1.314  -1.243   0.000  1.00  0.00     0.044 C 
ENDROOT
BRANCH   1   2
ATOM      2  C   UNL     1      -2.380  -0.188   0.000  1.00  0.00    -0.043 A 
ATOM      3  C   UNL     1      -4.513   1.922   0.000  1.00  0.00     0.163 A 
ATOM      4  C   UNL     1      -3.066   2.318   0.000  1.00  0.00     0.158 A 
ATOM      5  C   UNL     1      -4.893   0.471   0.000  1.00  0.00     0.002 A 
ATOM      6  C   UNL     1      -1.999   1.263   0.000  1.00  0.00     0.054 A 
ATOM      7  C   UNL     1      -3.827  -0.584   0.000  1.00  0.00     0.011 A 
BRANCH   3   8
ATOM      8  O   UNL     1      -5.579   2.977   0.000  1.00  0.00    -0.493 OA
ATOM      9  C   UNL     1      -5.198   4.428   0.000  1.00  0.00     0.278 C 
ENDBRANCH   3   8
BRANCH   4  10
ATOM     10  O   UNL     1      -2.685   3.769   0.000  1.00  0.00    -0.504 OA
ATOM     11  H   UNL     1       0.000   0.000   0.000  1.00  0.00     0.293 HD
ENDBRANCH   4  10
BRANCH   5  12
ATOM     12  C   UNL     1      -6.340   0.075   0.000  1.00  0.00     0.067 C 
BRANCH  12  13
ATOM     13  C   UNL     1      -6.720  -1.376   0.000  1.00  0.00    -0.023 C 
BRANCH  13  14
ATOM     14  C   UNL     1      -8.167  -1.772   0.000  1.00  0.00    -0.080 C 
ATOM     15  C   UNL     1      -8.548  -3.223   0.000  1.00  0.00     0.039 C 
ATOM     16  C   UNL     1      -9.233  -0.717   0.000  1.00  0.00     0.039 C 
ENDBRANCH  13  14
ENDBRANCH  12  13
ENDBRANCH   5  12
ENDBRANCH   1   2
BRANCH   1  17
ATOM     17  C   UNL     1       0.133  -0.847   0.000  1.00  0.00     0.086 C 
BRANCH  17  18
ATOM     18  C   UNL     1       1.199  -1.902   0.000  1.00  0.00     0.170 C 
ATOM     19  O   UNL     1       0.819  -3.353   0.000  1.00  0.00    -0.294 OA
BRANCH  18  20
ATOM     20  C   UNL     1       2.646  -1.506   0.000  1.00  0.00     0.102 A 
ATOM     21  C   UNL     1       3.712  -2.562   0.000  1.00  0.00     0.133 A 
ATOM     22  C   UNL     1       3.027  -0.056   0.000  1.00  0.00     0.137 A 
ATOM     23  C   UNL     1       5.159  -2.166   0.000  1.00  0.00     0.094 A 
ATOM     24  C   UNL     1       4.474   0.340   0.000  1.00  0.00     0.037 A 
ATOM     25  C   UNL     1       5.540  -0.715   0.000  1.00  0.00     0.130 A 
ATOM     26  C   UNL     1       4.854   1.791   0.000  1.00  0.00     0.047 C 
ATOM     27  O   UNL     1       6.987  -0.319   0.000  1.00  0.00    -0.487 OA
ATOM     28  C   UNL     1       6.301   2.187   0.000  1.00  0.00     0.053 C 
ATOM     29  C   UNL     1       7.367   1.132   0.000  1.00  0.00     0.104 C 
ATOM     30  C   UNL     1       8.221   2.365   0.000  1.00  0.00     0.056 C 
ATOM     31  C   UNL     1       8.730   0.505   0.000  1.00  0.00     0.056 C 
BRANCH  21  32
ATOM     32  O   UNL     1       3.332  -4.013   0.000  1.00  0.00    -0.507 OA
ATOM     33  H   UNL     1       0.000   0.000   0.000  1.00  0.00     0.293 HD
ENDBRANCH  21  32
BRANCH  22  34
ATOM     34  O   UNL     1       1.960   0.999   0.000  1.00  0.00    -0.507 OA
ATOM     35  H   UNL     1       0.000   0.000   0.000  1.00  0.00     0.293 HD
ENDBRANCH  22  34
ENDBRANCH  18  20
ENDBRANCH  17  18
ENDBRANCH   1  17
TORSDOF 11
