REMARK SMILES COc1cc2[nH]c3c(OC)c(OC)ccc3c(=O)c2c(OC)c1OC
REMARK SMILES IDX 3 1 4 2 5 3 19 4 20 5 23 6 17 7 18 8 16 9 15 10 14 11 11 12
REMARK SMILES IDX 8 13 7 14 6 15 2 17 1 18 24 19 25 20 21 21 22 22 9 23 10 24
REMARK SMILES IDX 12 25 13 26
REMARK H PARENT 6 16
ROOT
ATOM      1  C   UNL     1      -3.288   1.337   0.000  1.00  0.00     0.166 A 
ATOM      2  C   UNL     1      -1.870   1.827   0.000  1.00  0.00     0.077 A 
ATOM      3  C   UNL     1      -0.737   0.845   0.000  1.00  0.00     0.058 A 
ATOM      4  C   UNL     1      -1.021  -0.628   0.000  1.00  0.00     0.092 A 
ATOM      5  C   UNL     1      -2.438  -1.118   0.000  1.00  0.00     0.177 A 
ATOM      6  C   UNL     1      -3.572  -0.136   0.000  1.00  0.00     0.204 A 
ATOM      7  C   UNL     1       0.113  -1.611   0.000  1.00  0.00     0.201 A 
ATOM      8  O   UNL     1      -0.171  -3.083   0.000  1.00  0.00    -0.288 OA
ATOM      9  C   UNL     1       1.530  -1.120   0.000  1.00  0.00     0.050 A 
ATOM     10  C   UNL     1       2.664  -2.103   0.000  1.00  0.00     0.018 A 
ATOM     11  C   UNL     1       4.081  -1.612   0.000  1.00  0.00     0.051 A 
ATOM     12  C   UNL     1       4.365  -0.139   0.000  1.00  0.00     0.162 A 
ATOM     13  C   UNL     1       3.232   0.843   0.000  1.00  0.00     0.185 A 
ATOM     14  C   UNL     1       1.814   0.353   0.000  1.00  0.00     0.096 A 
ATOM     15  N   UNL     1       0.681   1.335   0.000  1.00  0.00    -0.351 N 
ATOM     16  H   UNL     1       0.000   0.000   0.000  1.00  0.00     0.167 HD
ENDROOT
BRANCH   1  17
ATOM     17  O   UNL     1      -4.421   2.319   0.000  1.00  0.00    -0.493 OA
ATOM     18  C   UNL     1      -4.137   3.792   0.000  1.00  0.00     0.278 C 
ENDBRANCH   1  17
BRANCH   6  19
ATOM     19  O   UNL     1      -4.989  -0.626   0.000  1.00  0.00    -0.490 OA
ATOM     20  C   UNL     1      -6.123   0.356   0.000  1.00  0.00     0.278 C 
ENDBRANCH   6  19
BRANCH   5  21
ATOM     21  O   UNL     1      -2.723  -2.591   0.000  1.00  0.00    -0.492 OA
ATOM     22  C   UNL     1      -4.140  -3.082   0.000  1.00  0.00     0.278 C 
ENDBRANCH   5  21
BRANCH  13  23
ATOM     23  O   UNL     1       3.516   2.316   0.000  1.00  0.00    -0.491 OA
ATOM     24  C   UNL     1       4.934   2.806   0.000  1.00  0.00     0.278 C 
ENDBRANCH  13  23
BRANCH  12  25
ATOM     25  O   UNL     1       5.783   0.351   0.000  1.00  0.00    -0.493 OA
ATOM     26  C   UNL     1       6.917  -0.631   0.000  1.00  0.00     0.278 C 
ENDBRANCH  12  25
TORSDOF 5
