REMARK SMILES COc1ccc(C[C@H]2COC(=O)[C@@H]2Cc2ccc(OC)c(OC)c2)cc1OC
REMARK SMILES IDX 8 1 9 2 10 3 11 4 12 5 13 6 7 7 6 8 3 9 4 10 26 11 5 12
REMARK SMILES IDX 25 13 2 14 1 15 27 16 28 17 14 18 15 19 16 20 24 21 17 22
REMARK SMILES IDX 21 23 18 24 22 25 23 26 19 27 20 28
REMARK H PARENT
ROOT
ATOM      1  C   UNL     1      -1.520   3.075   0.000  1.00  0.00     0.046 C 
ATOM      2  C   UNL     1      -1.063   4.503   0.000  1.00  0.00     0.237 C 
ATOM      3  O   UNL     1       0.437   4.509   0.000  1.00  0.00    -0.465 OA
ATOM      4  C   UNL     1       0.906   3.085   0.000  1.00  0.00     0.309 C 
ATOM      5  O   UNL     1       2.335   2.627   0.000  1.00  0.00    -0.252 OA
ATOM      6  C   UNL     1      -0.303   2.198   0.000  1.00  0.00     0.110 C 
ENDROOT
BRANCH   1   7
ATOM      7  C   UNL     1      -2.945   2.606   0.000  1.00  0.00     0.043 C 
BRANCH   7   8
ATOM      8  C   UNL     1      -3.251   1.137   0.000  1.00  0.00    -0.044 A 
ATOM      9  C   UNL     1      -3.863  -1.800   0.000  1.00  0.00     0.160 A 
ATOM     10  C   UNL     1      -4.982  -0.801   0.000  1.00  0.00     0.051 A 
ATOM     11  C   UNL     1      -2.438  -1.331   0.000  1.00  0.00     0.160 A 
ATOM     12  C   UNL     1      -4.676   0.668   0.000  1.00  0.00     0.008 A 
ATOM     13  C   UNL     1      -2.132   0.138   0.000  1.00  0.00     0.054 A 
BRANCH   9  14
ATOM     14  O   UNL     1      -4.169  -3.268   0.000  1.00  0.00    -0.493 OA
ATOM     15  C   UNL     1      -5.593  -3.738   0.000  1.00  0.00     0.278 C 
ENDBRANCH   9  14
BRANCH  11  16
ATOM     16  O   UNL     1      -1.319  -2.330   0.000  1.00  0.00    -0.493 OA
ATOM     17  C   UNL     1       0.105  -1.860   0.000  1.00  0.00     0.278 C 
ENDBRANCH  11  16
ENDBRANCH   7   8
ENDBRANCH   1   7
BRANCH   6  18
ATOM     18  C   UNL     1      -0.297   0.698   0.000  1.00  0.00     0.051 C 
BRANCH  18  19
ATOM     19  C   UNL     1       1.005  -0.047   0.000  1.00  0.00    -0.043 A 
ATOM     20  C   UNL     1       1.011  -1.547   0.000  1.00  0.00     0.008 A 
ATOM     21  C   UNL     1       2.301   0.709   0.000  1.00  0.00     0.054 A 
ATOM     22  C   UNL     1       2.313  -2.291   0.000  1.00  0.00     0.051 A 
ATOM     23  C   UNL     1       3.603  -0.036   0.000  1.00  0.00     0.160 A 
ATOM     24  C   UNL     1       3.609  -1.536   0.000  1.00  0.00     0.160 A 
BRANCH  23  25
ATOM     25  O   UNL     1       4.899   0.719   0.000  1.00  0.00    -0.493 OA
ATOM     26  C   UNL     1       6.201  -0.025   0.000  1.00  0.00     0.278 C 
ENDBRANCH  23  25
BRANCH  24  27
ATOM     27  O   UNL     1       4.911  -2.281   0.000  1.00  0.00    -0.493 OA
ATOM     28  C   UNL     1       4.917  -3.781   0.000  1.00  0.00     0.278 C 
ENDBRANCH  24  27
ENDBRANCH  18  19
ENDBRANCH   6  18
TORSDOF 8
