REMARK SMILES C=C(C)C1CC(CC2(CC=C(C)C)C(=O)C(C(CCCCCC)CC(=O)OC)=C3O[C@H](C)[C@@H](C)C(=O)C3=C2OC)C1(C)C
REMARK SMILES IDX 17 1 16 2 8 3 14 4 38 5 37 6 29 7 35 8 30 9 33 10 31 11
REMARK SMILES IDX 15 12 36 13 34 14 32 15 7 16 6 17 4 18 5 19 41 20 42 21
REMARK SMILES IDX 43 22 2 23 1 24 3 25 9 26 10 27 11 28 12 29 13 30 39 31
REMARK SMILES IDX 40 32 18 33 19 34 20 35 21 36 22 37 23 38 24 39 25 40 26 41
REMARK SMILES IDX 27 42 28 43
REMARK H PARENT
ROOT
ATOM      1  C   UNL     1       2.807   0.068   0.000  1.00  0.00     0.038 C 
ENDROOT
BRANCH   1   2
ATOM      2  C   UNL     1       1.389   0.557   0.000  1.00  0.00     0.043 C 
ATOM      3  C   UNL     1      -1.162   0.062   0.000  1.00  0.00     0.095 C 
ATOM      4  C   UNL     1       0.256  -0.427   0.000  1.00  0.00     0.176 C 
ATOM      5  C   UNL     1      -1.448   1.535   0.000  1.00  0.00     0.124 C 
ATOM      6  C   UNL     1      -0.315   2.518   0.000  1.00  0.00     0.099 C 
ATOM      7  C   UNL     1       1.103   2.029   0.000  1.00  0.00     0.141 C 
ATOM      8  C   UNL     1      -0.600   3.991   0.000  1.00  0.00     0.176 C 
ATOM      9  O   UNL     1       2.236   3.013   0.000  1.00  0.00    -0.489 OA
ATOM     10  C   UNL     1       0.532   4.974   0.000  1.00  0.00     0.099 C 
ATOM     11  C   UNL     1       1.950   4.485   0.000  1.00  0.00     0.180 C 
ATOM     12  O   UNL     1       0.541  -1.899   0.000  1.00  0.00    -0.293 OA
ATOM     13  O   UNL     1      -2.018   4.480   0.000  1.00  0.00    -0.293 OA
ATOM     14  C   UNL     1       0.247   6.447   0.000  1.00  0.00     0.020 C 
ATOM     15  C   UNL     1       3.083   5.469   0.000  1.00  0.00     0.053 C 
BRANCH   3  16
ATOM     16  C   UNL     1      -1.397  -1.419   0.000  1.00  0.00     0.028 C 
BRANCH  16  17
ATOM     17  C   UNL     1      -2.798  -1.956   0.000  1.00  0.00    -0.003 C 
ATOM     18  C   UNL     1      -4.779  -2.715   0.000  1.00  0.00     0.020 C 
ATOM     19  C   UNL     1      -4.168  -1.345   0.000  1.00  0.00     0.012 C 
ATOM     20  C   UNL     1      -3.409  -3.326   0.000  1.00  0.00    -0.026 C 
ATOM     21  C   UNL     1      -2.039  -3.937   0.000  1.00  0.00     0.012 C 
ATOM     22  C   UNL     1      -4.020  -4.696   0.000  1.00  0.00     0.012 C 
BRANCH  18  23
ATOM     23  C   UNL     1      -6.180  -3.252   0.000  1.00  0.00    -0.077 C 
ATOM     24  C   UNL     1      -6.415  -4.733   0.000  1.00  0.00     0.008 C 
ATOM     25  C   UNL     1      -7.345  -2.307   0.000  1.00  0.00     0.039 C 
ENDBRANCH  18  23
ENDBRANCH  16  17
ENDBRANCH   3  16
BRANCH   3  26
ATOM     26  C   UNL     1      -2.662   0.037   0.000  1.00  0.00     0.050 C 
BRANCH  26  27
ATOM     27  C   UNL     1      -3.434   1.323   0.000  1.00  0.00    -0.027 C 
BRANCH  27  28
ATOM     28  C   UNL     1      -4.934   1.298   0.000  1.00  0.00    -0.080 C 
ATOM     29  C   UNL     1      -5.705   2.584   0.000  1.00  0.00     0.039 C 
ATOM     30  C   UNL     1      -5.661  -0.014   0.000  1.00  0.00     0.039 C 
ENDBRANCH  27  28
ENDBRANCH  26  27
ENDBRANCH   3  26
BRANCH   5  31
ATOM     31  O   UNL     1      -2.865   2.024   0.000  1.00  0.00    -0.499 OA
ATOM     32  C   UNL     1      -3.151   3.497   0.000  1.00  0.00     0.278 C 
ENDBRANCH   5  31
ENDBRANCH   1   2
BRANCH   1  33
ATOM     33  C   UNL     1       3.092  -1.405   0.000  1.00  0.00     0.009 C 
BRANCH  33  34
ATOM     34  C   UNL     1       4.510  -1.894   0.000  1.00  0.00     0.001 C 
BRANCH  34  35
ATOM     35  C   UNL     1       4.795  -3.367   0.000  1.00  0.00     0.000 C 
BRANCH  35  36
ATOM     36  C   UNL     1       6.213  -3.856   0.000  1.00  0.00    -0.000 C 
BRANCH  36  37
ATOM     37  C   UNL     1       6.499  -5.329   0.000  1.00  0.00    -0.003 C 
ATOM     38  C   UNL     1       7.917  -5.818   0.000  1.00  0.00     0.004 C 
ENDBRANCH  36  37
ENDBRANCH  35  36
ENDBRANCH  34  35
ENDBRANCH  33  34
ENDBRANCH   1  33
BRANCH   1  39
ATOM     39  C   UNL     1       3.939   1.051   0.000  1.00  0.00     0.131 C 
BRANCH  39  40
ATOM     40  C   UNL     1       5.357   0.562   0.000  1.00  0.00     0.306 C 
ATOM     41  O   UNL     1       5.643  -0.911   0.000  1.00  0.00    -0.252 OA
BRANCH  40  42
ATOM     42  O   UNL     1       6.490   1.545   0.000  1.00  0.00    -0.469 OA
ATOM     43  C   UNL     1       7.908   1.056   0.000  1.00  0.00     0.282 C 
ENDBRANCH  40  42
ENDBRANCH  39  40
ENDBRANCH   1  39
TORSDOF 16
