REMARK SMILES COc1ccc(-c2oc3c(ccc4occc43)c(=O)c2OC)cc1
REMARK SMILES IDX 7 1 20 2 18 3 19 4 10 5 9 6 8 7 17 8 13 9 12 10 11 11 14 12
REMARK SMILES IDX 15 13 16 14 6 15 3 16 4 17 24 18 5 19 23 20 2 21 1 22 21 23
REMARK SMILES IDX 22 24
REMARK H PARENT
ROOT
ATOM      1  C   UNL     1       0.536  -0.215   0.000  1.00  0.00     0.180 A 
ATOM      2  C   UNL     1       0.248  -1.687   0.000  1.00  0.00     0.210 A 
ATOM      3  C   UNL     1      -1.171  -2.174   0.000  1.00  0.00     0.235 A 
ATOM      4  O   UNL     1      -1.459  -3.646   0.000  1.00  0.00    -0.285 OA
ATOM      5  C   UNL     1      -2.302  -1.188   0.000  1.00  0.00     0.070 A 
ATOM      6  C   UNL     1      -2.013   0.284   0.000  1.00  0.00     0.150 A 
ATOM      7  O   UNL     1      -0.594   0.770   0.000  1.00  0.00    -0.451 OA
ATOM      8  C   UNL     1      -3.144   1.270   0.000  1.00  0.00     0.064 A 
ATOM      9  C   UNL     1      -4.563   0.783   0.000  1.00  0.00     0.137 A 
ATOM     10  C   UNL     1      -4.851  -0.689   0.000  1.00  0.00     0.049 A 
ATOM     11  C   UNL     1      -3.721  -1.674   0.000  1.00  0.00     0.020 A 
ATOM     12  O   UNL     1      -5.464   1.983   0.000  1.00  0.00    -0.464 OA
ATOM     13  C   UNL     1      -4.602   3.210   0.000  1.00  0.00     0.196 A 
ATOM     14  C   UNL     1      -3.168   2.770   0.000  1.00  0.00     0.054 A 
ENDROOT
BRANCH   1  15
ATOM     15  C   UNL     1       1.955   0.271   0.000  1.00  0.00     0.021 A 
ATOM     16  C   UNL     1       4.793   1.244   0.000  1.00  0.00     0.118 A 
ATOM     17  C   UNL     1       4.505  -0.228   0.000  1.00  0.00     0.047 A 
ATOM     18  C   UNL     1       3.663   2.229   0.000  1.00  0.00     0.047 A 
ATOM     19  C   UNL     1       3.086  -0.715   0.000  1.00  0.00     0.016 A 
ATOM     20  C   UNL     1       2.244   1.743   0.000  1.00  0.00     0.016 A 
BRANCH  16  21
ATOM     21  O   UNL     1       6.212   1.730   0.000  1.00  0.00    -0.497 OA
ATOM     22  C   UNL     1       7.343   0.744   0.000  1.00  0.00     0.278 C 
ENDBRANCH  16  21
ENDBRANCH   1  15
BRANCH   2  23
ATOM     23  O   UNL     1       1.379  -2.673   0.000  1.00  0.00    -0.490 OA
ATOM     24  C   UNL     1       1.090  -4.145   0.000  1.00  0.00     0.278 C 
ENDBRANCH   2  23
TORSDOF 3
