REMARK SMILES C[C@H](O)[C@H](C)C(=O)[C@@H]1C(=O)O[C@]2(C)C(=O)C(Cl)=C3C=C(/C=C/[C@@H](C)[C@@H](C)O)OC=C3[C@H]12
REMARK SMILES IDX 8 1 9 2 10 3 11 4 12 5 13 6 14 7 15 8 16 9 17 10 18 11 19 12
REMARK SMILES IDX 20 13 28 14 29 15 30 16 31 17 6 18 7 19 4 20 5 21 2 22 1 23
REMARK SMILES IDX 3 24 21 26 22 27 23 28 24 29 25 30 26 31 27 32
REMARK H PARENT 3 25 27 33
ROOT
ATOM      1  C   UNL     1      -2.921   0.073   0.000  1.00  0.00     0.178 C 
ATOM      2  C   UNL     1      -4.177  -0.746   0.000  1.00  0.00     0.318 C 
ATOM      3  O   UNL     1      -5.579  -0.212   0.000  1.00  0.00    -0.251 OA
ATOM      4  O   UNL     1      -3.786  -2.194   0.000  1.00  0.00    -0.450 OA
ATOM      5  C   UNL     1      -2.288  -2.269   0.000  1.00  0.00     0.181 C 
ATOM      6  C   UNL     1      -2.966  -3.607   0.000  1.00  0.00     0.067 C 
ATOM      7  C   UNL     1      -1.341  -3.433   0.000  1.00  0.00     0.218 C 
ATOM      8  O   UNL     1      -1.876  -4.835   0.000  1.00  0.00    -0.289 OA
ATOM      9  C   UNL     1       0.140  -3.195   0.000  1.00  0.00     0.096 C 
ATOM     10  Cl  UNL     1       1.086  -4.359   0.000  1.00  0.00    -0.080 Cl
ATOM     11  C   UNL     1       0.674  -1.794   0.000  1.00  0.00     0.007 C 
ATOM     12  C   UNL     1       2.155  -1.556   0.000  1.00  0.00     0.057 C 
ATOM     13  C   UNL     1       2.690  -0.154   0.000  1.00  0.00     0.126 C 
ATOM     14  O   UNL     1       1.743   1.010   0.000  1.00  0.00    -0.465 OA
ATOM     15  C   UNL     1       0.262   0.772   0.000  1.00  0.00     0.200 C 
ATOM     16  C   UNL     1      -0.272  -0.630   0.000  1.00  0.00     0.005 C 
ATOM     17  C   UNL     1      -1.753  -0.868   0.000  1.00  0.00     0.097 C 
ENDROOT
BRANCH   1  18
ATOM     18  C   UNL     1      -2.846   1.572   0.000  1.00  0.00     0.153 C 
ATOM     19  O   UNL     1      -1.511   2.256   0.000  1.00  0.00    -0.298 OA
BRANCH  18  20
ATOM     20  C   UNL     1      -4.106   2.386   0.000  1.00  0.00     0.082 C 
ATOM     21  C   UNL     1      -5.441   1.702   0.000  1.00  0.00     0.019 C 
BRANCH  20  22
ATOM     22  C   UNL     1      -4.030   3.884   0.000  1.00  0.00     0.121 C 
ATOM     23  C   UNL     1      -5.290   4.698   0.000  1.00  0.00     0.039 C 
BRANCH  22  24
ATOM     24  O   UNL     1      -2.696   4.568   0.000  1.00  0.00    -0.393 OA
ATOM     25  H   UNL     1       0.000   0.000   0.000  1.00  0.00     0.210 HD
ENDBRANCH  22  24
ENDBRANCH  20  22
ENDBRANCH  18  20
ENDBRANCH   1  18
BRANCH  13  26
ATOM     26  C   UNL     1       4.171   0.084   0.000  1.00  0.00     0.043 C 
BRANCH  26  27
ATOM     27  C   UNL     1       4.705   1.485   0.000  1.00  0.00    -0.017 C 
BRANCH  27  28
ATOM     28  C   UNL     1       6.186   1.723   0.000  1.00  0.00     0.037 C 
ATOM     29  C   UNL     1       6.721   3.125   0.000  1.00  0.00     0.015 C 
BRANCH  28  30
ATOM     30  C   UNL     1       7.133   0.560   0.000  1.00  0.00     0.118 C 
ATOM     31  C   UNL     1       8.614   0.797   0.000  1.00  0.00     0.039 C 
BRANCH  30  32
ATOM     32  O   UNL     1       6.598  -0.842   0.000  1.00  0.00    -0.393 OA
ATOM     33  H   UNL     1       0.000   0.000   0.000  1.00  0.00     0.210 HD
ENDBRANCH  30  32
ENDBRANCH  28  30
ENDBRANCH  27  28
ENDBRANCH  26  27
ENDBRANCH  13  26
TORSDOF 9
