REMARK SMILES C[C@H]1CC[C@@H]2C(COC(=O)/C=C/c3ccc(O)c(O)c3)=CO[C@@H](O)[C@@H]21
REMARK SMILES IDX 9 1 10 2 8 3 7 4 6 5 2 6 3 7 25 8 4 9 23 10 5 11 22 12 21 13
REMARK SMILES IDX 1 14 24 15 11 17 12 18 13 19 14 20 20 21 15 22 18 23 16 24
REMARK SMILES IDX 19 25 17 27
REMARK H PARENT 24 16 19 26 17 28
ROOT
ATOM      1  C   UNL     1      -0.848   1.104   0.000  1.00  0.00     0.331 C 
ATOM      2  O   UNL     1      -0.690   2.596   0.000  1.00  0.00    -0.247 OA
ENDROOT
BRANCH   1   3
ATOM      3  O   UNL     1       0.364   0.221   0.000  1.00  0.00    -0.458 OA
BRANCH   3   4
ATOM      4  C   UNL     1       1.735   0.830   0.000  1.00  0.00     0.268 C 
BRANCH   4   5
ATOM      5  C   UNL     1       2.948  -0.053   0.000  1.00  0.00     0.005 C 
ATOM      6  C   UNL     1       6.746   0.554   0.000  1.00  0.00    -0.004 C 
ATOM      7  C   UNL     1       6.284   1.981   0.000  1.00  0.00     0.004 C 
ATOM      8  C   UNL     1       5.532  -0.327   0.000  1.00  0.00     0.068 C 
ATOM      9  C   UNL     1       4.784   1.982   0.000  1.00  0.00     0.009 C 
ATOM     10  C   UNL     1       5.373  -1.818   0.000  1.00  0.00     0.307 C 
ATOM     11  C   UNL     1       4.319   0.556   0.000  1.00  0.00     0.031 C 
ATOM     12  O   UNL     1       4.003  -2.427   0.000  1.00  0.00    -0.472 OA
ATOM     13  C   UNL     1       2.790  -1.544   0.000  1.00  0.00     0.193 C 
ATOM     14  C   UNL     1       8.172   0.089   0.000  1.00  0.00     0.008 C 
BRANCH  10  15
ATOM     15  O   UNL     1       6.586  -2.701   0.000  1.00  0.00    -0.358 OA
ATOM     16  H   UNL     1       0.000   0.000   0.000  1.00  0.00     0.215 HD
ENDBRANCH  10  15
ENDBRANCH   4   5
ENDBRANCH   3   4
ENDBRANCH   1   3
BRANCH   1  17
ATOM     17  C   UNL     1      -2.219   0.495   0.000  1.00  0.00     0.094 C 
BRANCH  17  18
ATOM     18  C   UNL     1      -3.432   1.378   0.000  1.00  0.00     0.016 C 
BRANCH  18  19
ATOM     19  C   UNL     1      -4.803   0.769   0.000  1.00  0.00    -0.021 A 
ATOM     20  C   UNL     1      -6.015   1.652   0.000  1.00  0.00     0.012 A 
ATOM     21  C   UNL     1      -4.961  -0.722   0.000  1.00  0.00     0.058 A 
ATOM     22  C   UNL     1      -7.386   1.044   0.000  1.00  0.00     0.051 A 
ATOM     23  C   UNL     1      -6.332  -1.331   0.000  1.00  0.00     0.157 A 
ATOM     24  C   UNL     1      -7.545  -0.448   0.000  1.00  0.00     0.157 A 
BRANCH  23  25
ATOM     25  O   UNL     1      -6.490  -2.823   0.000  1.00  0.00    -0.504 OA
ATOM     26  H   UNL     1       0.000   0.000   0.000  1.00  0.00     0.293 HD
ENDBRANCH  23  25
BRANCH  24  27
ATOM     27  O   UNL     1      -8.915  -1.057   0.000  1.00  0.00    -0.504 OA
ATOM     28  H   UNL     1       0.000   0.000   0.000  1.00  0.00     0.293 HD
ENDBRANCH  24  27
ENDBRANCH  18  19
ENDBRANCH  17  18
ENDBRANCH   1  17
TORSDOF 9
