REMARK SMILES CC[C@@H](CC[C@@H](C)[C@H]1CC[C@H]2[C@@H]3C(=O)C=C4C[C@@H](O)CC[C@]4(C)[C@H]3CC[C@]12C)C(C)C
REMARK SMILES IDX 5 1 4 2 3 3 2 4 1 5 29 6 30 7 31 8 6 9 7 10 8 11 9 12 27 13
REMARK SMILES IDX 10 14 26 15 11 16 25 17 12 18 24 19 13 20 22 21 15 22 21 23
REMARK SMILES IDX 16 24 20 25 17 26 18 27 28 28 14 29 23 30 19 31
REMARK H PARENT 19 32
ROOT
ATOM      1  C   UNL     1      -3.612  -0.610   0.000  1.00  0.00     0.004 C 
ENDROOT
BRANCH   1   2
ATOM      2  C   UNL     1      -5.076  -0.285   0.000  1.00  0.00     0.004 C 
BRANCH   2   3
ATOM      3  C   UNL     1      -5.527   1.146   0.000  1.00  0.00    -0.009 C 
BRANCH   3   4
ATOM      4  C   UNL     1      -6.992   1.470   0.000  1.00  0.00     0.000 C 
ATOM      5  C   UNL     1      -7.443   2.901   0.000  1.00  0.00     0.004 C 
ENDBRANCH   3   4
BRANCH   3   6
ATOM      6  C   UNL     1      -4.514   2.252   0.000  1.00  0.00    -0.014 C 
ATOM      7  C   UNL     1      -4.965   3.682   0.000  1.00  0.00     0.007 C 
ATOM      8  C   UNL     1      -3.049   1.927   0.000  1.00  0.00     0.007 C 
ENDBRANCH   3   6
ENDBRANCH   2   3
ENDBRANCH   1   2
BRANCH   1   9
ATOM      9  C   UNL     1      -3.161  -2.040   0.000  1.00  0.00    -0.011 C 
ATOM     10  C   UNL     1      -4.174  -3.146   0.000  1.00  0.00     0.008 C 
BRANCH   9  11
ATOM     11  C   UNL     1      -1.696  -2.365   0.000  1.00  0.00    -0.002 C 
ATOM     12  C   UNL     1      -1.098  -3.740   0.000  1.00  0.00     0.005 C 
ATOM     13  C   UNL     1      -0.573  -1.371   0.000  1.00  0.00    -0.026 C 
ATOM     14  C   UNL     1       0.395  -3.596   0.000  1.00  0.00     0.005 C 
ATOM     15  C   UNL     1      -0.560   0.129   0.000  1.00  0.00     0.008 C 
ATOM     16  C   UNL     1       0.720  -2.132   0.000  1.00  0.00     0.006 C 
ATOM     17  C   UNL     1       0.746   0.868   0.000  1.00  0.00     0.006 C 
ATOM     18  C   UNL     1       2.025  -1.393   0.000  1.00  0.00     0.068 C 
ATOM     19  C   UNL     1       2.038   0.106   0.000  1.00  0.00     0.010 C 
ATOM     20  C   UNL     1       3.318  -2.155   0.000  1.00  0.00     0.159 C 
ATOM     21  C   UNL     1       3.344   0.845   0.000  1.00  0.00    -0.007 C 
ATOM     22  C   UNL     1       4.623  -1.416   0.000  1.00  0.00     0.047 C 
ATOM     23  C   UNL     1       3.357   2.345   0.000  1.00  0.00     0.014 C 
ATOM     24  C   UNL     1       4.636   0.084   0.000  1.00  0.00    -0.058 C 
ATOM     25  C   UNL     1       4.662   3.084   0.000  1.00  0.00     0.033 C 
ATOM     26  C   UNL     1       5.942   0.823   0.000  1.00  0.00     0.063 C 
ATOM     27  C   UNL     1       5.955   2.322   0.000  1.00  0.00     0.118 C 
ATOM     28  C   UNL     1      -1.938  -0.749   0.000  1.00  0.00     0.012 C 
ATOM     29  O   UNL     1       3.305  -3.655   0.000  1.00  0.00    -0.295 OA
ATOM     30  C   UNL     1       2.051   1.607   0.000  1.00  0.00     0.016 C 
BRANCH  27  31
ATOM     31  O   UNL     1       7.260   3.061   0.000  1.00  0.00    -0.393 OA
ATOM     32  H   UNL     1       0.000   0.000   0.000  1.00  0.00     0.210 HD
ENDBRANCH  27  31
ENDBRANCH   9  11
ENDBRANCH   1   9
TORSDOF 7
