REMARK SMILES COc1c(CCCCCCCCCCC(C)(C)O)[nH]c2ccccc2c1=O
REMARK SMILES IDX 9 1 8 2 7 3 6 4 5 5 4 6 3 7 26 8 19 9 25 10 20 11 24 12
REMARK SMILES IDX 21 13 23 14 22 15 27 16 2 18 1 19 10 20 11 21 12 22 13 23
REMARK SMILES IDX 14 24 15 25 16 26 17 27 18 28
REMARK H PARENT 19 17 18 29
ROOT
ATOM      1  C   UNL     1      -2.707  -0.809   0.000  1.00  0.00     0.000 C 
ENDROOT
BRANCH   1   2
ATOM      2  C   UNL     1      -1.332  -0.211   0.000  1.00  0.00     0.000 C 
BRANCH   2   3
ATOM      3  C   UNL     1      -0.126  -1.104   0.000  1.00  0.00     0.000 C 
BRANCH   3   4
ATOM      4  C   UNL     1       1.250  -0.506   0.000  1.00  0.00     0.006 C 
BRANCH   4   5
ATOM      5  C   UNL     1       2.455  -1.399   0.000  1.00  0.00     0.058 C 
BRANCH   5   6
ATOM      6  C   UNL     1       3.831  -0.801   0.000  1.00  0.00     0.062 A 
ATOM      7  C   UNL     1       4.001   0.689   0.000  1.00  0.00     0.186 A 
ATOM      8  C   UNL     1       5.377   1.287   0.000  1.00  0.00     0.231 A 
ATOM      9  N   UNL     1       5.037  -1.694   0.000  1.00  0.00    -0.355 N 
ATOM     10  C   UNL     1       6.582   0.394   0.000  1.00  0.00     0.049 A 
ATOM     11  C   UNL     1       6.412  -1.096   0.000  1.00  0.00     0.050 A 
ATOM     12  C   UNL     1       7.958   0.992   0.000  1.00  0.00     0.014 A 
ATOM     13  C   UNL     1       7.618  -1.988   0.000  1.00  0.00     0.027 A 
ATOM     14  C   UNL     1       9.164   0.100   0.000  1.00  0.00     0.001 A 
ATOM     15  C   UNL     1       8.993  -1.391   0.000  1.00  0.00     0.002 A 
ATOM     16  O   UNL     1       5.547   2.777   0.000  1.00  0.00    -0.285 OA
ATOM     17  H   UNL     1       0.000   0.000   0.000  1.00  0.00     0.166 HD
BRANCH   7  18
ATOM     18  O   UNL     1       2.796   1.582   0.000  1.00  0.00    -0.491 OA
ATOM     19  C   UNL     1       2.966   3.072   0.000  1.00  0.00     0.278 C 
ENDBRANCH   7  18
ENDBRANCH   5   6
ENDBRANCH   4   5
ENDBRANCH   3   4
ENDBRANCH   2   3
ENDBRANCH   1   2
BRANCH   1  20
ATOM     20  C   UNL     1      -3.913   0.084   0.000  1.00  0.00     0.000 C 
BRANCH  20  21
ATOM     21  C   UNL     1      -5.289  -0.514   0.000  1.00  0.00     0.000 C 
BRANCH  21  22
ATOM     22  C   UNL     1      -6.494   0.378   0.000  1.00  0.00     0.000 C 
BRANCH  22  23
ATOM     23  C   UNL     1      -7.870  -0.219   0.000  1.00  0.00     0.003 C 
BRANCH  23  24
ATOM     24  C   UNL     1      -9.075   0.673   0.000  1.00  0.00     0.034 C 
BRANCH  24  25
ATOM     25  C   UNL     1     -10.451   0.075   0.000  1.00  0.00     0.059 C 
ATOM     26  C   UNL     1      -9.854  -1.300   0.000  1.00  0.00     0.042 C 
ATOM     27  C   UNL     1     -11.049   1.451   0.000  1.00  0.00     0.042 C 
BRANCH  25  28
ATOM     28  O   UNL     1     -11.827  -0.522   0.000  1.00  0.00    -0.390 OA
ATOM     29  H   UNL     1       0.000   0.000   0.000  1.00  0.00     0.211 HD
ENDBRANCH  25  28
ENDBRANCH  24  25
ENDBRANCH  23  24
ENDBRANCH  22  23
ENDBRANCH  21  22
ENDBRANCH  20  21
ENDBRANCH   1  20
TORSDOF 13
