REMARK SMILES Oc1ccc(CCCc2ccc3c(c2)OCO3)c(O)c1
REMARK SMILES IDX 6 1 5 2 2 3 3 4 20 5 4 6 18 7 1 8 19 10 7 12 8 13 9 14 10 15
REMARK SMILES IDX 14 16 11 17 13 18 12 19 15 20 17 21 16 22
REMARK H PARENT 1 9 19 11
ROOT
ATOM      1  C   UNL     1       1.833   1.214   0.000  1.00  0.00     0.040 C 
ENDROOT
BRANCH   1   2
ATOM      2  C   UNL     1       3.122   0.448   0.000  1.00  0.00    -0.006 A 
ATOM      3  C   UNL     1       5.701  -1.086   0.000  1.00  0.00     0.119 A 
ATOM      4  C   UNL     1       4.392  -1.819   0.000  1.00  0.00     0.047 A 
ATOM      5  C   UNL     1       5.720   0.414   0.000  1.00  0.00     0.092 A 
ATOM      6  C   UNL     1       3.103  -1.052   0.000  1.00  0.00     0.011 A 
ATOM      7  C   UNL     1       4.431   1.181   0.000  1.00  0.00     0.122 A 
BRANCH   3   8
ATOM      8  O   UNL     1       6.990  -1.852   0.000  1.00  0.00    -0.508 OA
ATOM      9  H   UNL     1       0.000   0.000   0.000  1.00  0.00     0.293 HD
ENDBRANCH   3   8
BRANCH   7  10
ATOM     10  O   UNL     1       4.450   2.681   0.000  1.00  0.00    -0.508 OA
ATOM     11  H   UNL     1       0.000   0.000   0.000  1.00  0.00     0.293 HD
ENDBRANCH   7  10
ENDBRANCH   1   2
BRANCH   1  12
ATOM     12  C   UNL     1       0.524   0.481   0.000  1.00  0.00     0.010 C 
BRANCH  12  13
ATOM     13  C   UNL     1      -0.765   1.247   0.000  1.00  0.00     0.036 C 
BRANCH  13  14
ATOM     14  C   UNL     1      -2.074   0.514   0.000  1.00  0.00    -0.044 A 
ATOM     15  C   UNL     1      -2.093  -0.986   0.000  1.00  0.00     0.008 A 
ATOM     16  C   UNL     1      -3.363   1.281   0.000  1.00  0.00     0.054 A 
ATOM     17  C   UNL     1      -3.402  -1.719   0.000  1.00  0.00     0.051 A 
ATOM     18  C   UNL     1      -4.672   0.547   0.000  1.00  0.00     0.166 A 
ATOM     19  C   UNL     1      -4.691  -0.952   0.000  1.00  0.00     0.165 A 
ATOM     20  O   UNL     1      -6.092   1.029   0.000  1.00  0.00    -0.454 OA
ATOM     21  O   UNL     1      -6.123  -1.398   0.000  1.00  0.00    -0.454 OA
ATOM     22  C   UNL     1      -6.989  -0.173   0.000  1.00  0.00     0.468 C 
ENDBRANCH  13  14
ENDBRANCH  12  13
ENDBRANCH   1  12
TORSDOF 6
