REMARK SMILES COC(=O)c1cc(O)c2c(c1)CCC(C)(C)O2
REMARK SMILES IDX 5 1 6 2 7 3 9 4 17 5 14 6 15 7 16 8 13 9 12 10 10 11 11 12
REMARK SMILES IDX 3 13 4 14 2 15 1 16 8 17
REMARK H PARENT 8 18
ROOT
ATOM      1  C   UNL     1      -1.943  -0.212   0.000  1.00  0.00     0.064 A 
ATOM      2  C   UNL     1      -1.365  -1.596   0.000  1.00  0.00     0.065 A 
ATOM      3  C   UNL     1       0.122  -1.788   0.000  1.00  0.00     0.158 A 
ATOM      4  C   UNL     1       1.032  -0.595   0.000  1.00  0.00     0.164 A 
ATOM      5  O   UNL     1       2.520  -0.787   0.000  1.00  0.00    -0.484 OA
ATOM      6  C   UNL     1       3.430   0.405   0.000  1.00  0.00     0.104 C 
ATOM      7  C   UNL     1       4.693   1.214   0.000  1.00  0.00     0.056 C 
ATOM      8  C   UNL     1       4.446  -0.698   0.000  1.00  0.00     0.056 C 
ATOM      9  C   UNL     1       2.852   1.790   0.000  1.00  0.00     0.053 C 
ATOM     10  C   UNL     1       1.365   1.981   0.000  1.00  0.00     0.044 C 
ATOM     11  C   UNL     1       0.455   0.789   0.000  1.00  0.00    -0.001 A 
ATOM     12  C   UNL     1      -1.033   0.981   0.000  1.00  0.00     0.023 A 
ENDROOT
BRANCH   1  13
ATOM     13  C   UNL     1      -3.431  -0.020   0.000  1.00  0.00     0.337 C 
ATOM     14  O   UNL     1      -4.341  -1.212   0.000  1.00  0.00    -0.246 OA
BRANCH  13  15
ATOM     15  O   UNL     1      -4.008   1.364   0.000  1.00  0.00    -0.465 OA
ATOM     16  C   UNL     1      -5.496   1.556   0.000  1.00  0.00     0.282 C 
ENDBRANCH  13  15
ENDBRANCH   1  13
BRANCH   3  17
ATOM     17  O   UNL     1       0.700  -3.172   0.000  1.00  0.00    -0.504 OA
ATOM     18  H   UNL     1       0.000   0.000   0.000  1.00  0.00     0.293 HD
ENDBRANCH   3  17
TORSDOF 3
