REMARK SMILES CC(C)=CCCC(C)=CC(=O)c1cc(C(=O)O)ccc1O
REMARK SMILES IDX 7 1 8 2 6 3 5 4 4 5 2 6 1 7 3 8 9 9 10 10 11 11 12 12 13 13
REMARK SMILES IDX 20 14 14 15 19 16 18 17 21 18 15 20 16 21 17 22
REMARK H PARENT 21 19 17 23
ROOT
ATOM      1  C   UNL     1       1.641  -1.413   0.000  1.00  0.00    -0.069 C 
ATOM      2  C   UNL     1       2.113  -2.836   0.000  1.00  0.00     0.039 C 
ENDROOT
BRANCH   1   3
ATOM      3  C   UNL     1       2.638  -0.292   0.000  1.00  0.00     0.035 C 
BRANCH   3   4
ATOM      4  C   UNL     1       4.107  -0.595   0.000  1.00  0.00     0.032 C 
BRANCH   4   5
ATOM      5  C   UNL     1       5.104   0.526   0.000  1.00  0.00    -0.028 C 
BRANCH   5   6
ATOM      6  C   UNL     1       6.574   0.222   0.000  1.00  0.00    -0.080 C 
ATOM      7  C   UNL     1       7.571   1.343   0.000  1.00  0.00     0.039 C 
ATOM      8  C   UNL     1       7.045  -1.202   0.000  1.00  0.00     0.039 C 
ENDBRANCH   5   6
ENDBRANCH   4   5
ENDBRANCH   3   4
ENDBRANCH   1   3
BRANCH   1   9
ATOM      9  C   UNL     1       0.172  -1.109   0.000  1.00  0.00     0.051 C 
BRANCH   9  10
ATOM     10  C   UNL     1      -0.300   0.315   0.000  1.00  0.00     0.189 C 
ATOM     11  O   UNL     1       0.697   1.435   0.000  1.00  0.00    -0.289 OA
BRANCH  10  12
ATOM     12  C   UNL     1      -1.769   0.618   0.000  1.00  0.00     0.064 A 
ATOM     13  C   UNL     1      -2.766  -0.503   0.000  1.00  0.00     0.031 A 
ATOM     14  C   UNL     1      -2.241   2.042   0.000  1.00  0.00     0.126 A 
ATOM     15  C   UNL     1      -4.235  -0.200   0.000  1.00  0.00     0.060 A 
ATOM     16  C   UNL     1      -3.710   2.345   0.000  1.00  0.00     0.048 A 
ATOM     17  C   UNL     1      -4.707   1.224   0.000  1.00  0.00     0.019 A 
BRANCH  14  18
ATOM     18  O   UNL     1      -1.244   3.162   0.000  1.00  0.00    -0.507 OA
ATOM     19  H   UNL     1       0.000   0.000   0.000  1.00  0.00     0.293 HD
ENDBRANCH  14  18
BRANCH  15  20
ATOM     20  C   UNL     1      -5.232  -1.320   0.000  1.00  0.00     0.335 C 
ATOM     21  O   UNL     1      -4.760  -2.744   0.000  1.00  0.00    -0.246 OA
BRANCH  20  22
ATOM     22  O   UNL     1      -6.701  -1.017   0.000  1.00  0.00    -0.478 OA
ATOM     23  H   UNL     1       0.000   0.000   0.000  1.00  0.00     0.297 HD
ENDBRANCH  20  22
ENDBRANCH  15  20
ENDBRANCH  10  12
ENDBRANCH   9  10
ENDBRANCH   1   9
TORSDOF 10
