REMARK SMILES C=CCCCCCCCCC
REMARK SMILES IDX 6 1 5 2 4 3 3 4 2 5 1 6 7 7 8 8 9 9 10 10 11 11
REMARK H PARENT
ROOT
ATOM      1  C   UNL     1       0.000   0.409   0.000  1.00  0.00     0.000 C 
ENDROOT
BRANCH   1   2
ATOM      2  C   UNL     1      -1.299  -0.341   0.000  1.00  0.00     0.000 C 
BRANCH   2   3
ATOM      3  C   UNL     1      -2.598   0.409   0.000  1.00  0.00     0.004 C 
BRANCH   3   4
ATOM      4  C   UNL     1      -3.897  -0.341   0.000  1.00  0.00     0.027 C 
BRANCH   4   5
ATOM      5  C   UNL     1      -5.196   0.409   0.000  1.00  0.00    -0.035 C 
ATOM      6  C   UNL     1      -6.495  -0.341   0.000  1.00  0.00     0.004 C 
ENDBRANCH   4   5
ENDBRANCH   3   4
ENDBRANCH   2   3
ENDBRANCH   1   2
BRANCH   1   7
ATOM      7  C   UNL     1       1.299  -0.341   0.000  1.00  0.00     0.000 C 
BRANCH   7   8
ATOM      8  C   UNL     1       2.598   0.409   0.000  1.00  0.00    -0.000 C 
BRANCH   8   9
ATOM      9  C   UNL     1       3.897  -0.341   0.000  1.00  0.00    -0.000 C 
BRANCH   9  10
ATOM     10  C   UNL     1       5.196   0.409   0.000  1.00  0.00    -0.003 C 
ATOM     11  C   UNL     1       6.495  -0.341   0.000  1.00  0.00     0.004 C 
ENDBRANCH   9  10
ENDBRANCH   8   9
ENDBRANCH   7   8
ENDBRANCH   1   7
TORSDOF 8
