REMARK SMILES CC(=O)Oc1cc(OC(C)=O)c2c(OC(C)=O)c(C(C)=O)c(C)cc2c1
REMARK SMILES IDX 5 1 6 2 7 3 12 4 13 5 18 6 22 7 23 8 24 9 25 10 26 11 4 12
REMARK SMILES IDX 2 13 1 14 3 15 8 16 9 17 10 18 11 19 14 20 15 21 16 22 17 23
REMARK SMILES IDX 19 24 20 25 21 26
REMARK H PARENT
ROOT
ATOM      1  C   UNL     1      -2.782  -1.394   0.000  1.00  0.00     0.135 A 
ATOM      2  C   UNL     1      -2.478   0.075   0.000  1.00  0.00     0.095 A 
ATOM      3  C   UNL     1      -1.054   0.546   0.000  1.00  0.00     0.146 A 
ATOM      4  C   UNL     1       0.066  -0.452   0.000  1.00  0.00     0.068 A 
ATOM      5  C   UNL     1       1.490   0.019   0.000  1.00  0.00     0.153 A 
ATOM      6  C   UNL     1       2.610  -0.978   0.000  1.00  0.00     0.064 A 
ATOM      7  C   UNL     1       2.306  -2.447   0.000  1.00  0.00    -0.036 A 
ATOM      8  C   UNL     1       3.426  -3.445   0.000  1.00  0.00     0.045 C 
ATOM      9  C   UNL     1       0.882  -2.918   0.000  1.00  0.00     0.013 A 
ATOM     10  C   UNL     1      -0.238  -1.921   0.000  1.00  0.00    -0.007 A 
ATOM     11  C   UNL     1      -1.662  -2.392   0.000  1.00  0.00     0.056 A 
ENDROOT
BRANCH   1  12
ATOM     12  O   UNL     1      -4.206  -1.865   0.000  1.00  0.00    -0.427 OA
BRANCH  12  13
ATOM     13  C   UNL     1      -5.327  -0.868   0.000  1.00  0.00     0.308 C 
ATOM     14  C   UNL     1      -6.751  -1.339   0.000  1.00  0.00     0.139 C 
ATOM     15  O   UNL     1      -5.022   0.601   0.000  1.00  0.00    -0.252 OA
ENDBRANCH  12  13
ENDBRANCH   1  12
BRANCH   3  16
ATOM     16  O   UNL     1      -0.750   2.015   0.000  1.00  0.00    -0.426 OA
BRANCH  16  17
ATOM     17  C   UNL     1      -1.871   3.012   0.000  1.00  0.00     0.308 C 
ATOM     18  C   UNL     1      -1.567   4.481   0.000  1.00  0.00     0.139 C 
ATOM     19  O   UNL     1      -3.295   2.541   0.000  1.00  0.00    -0.252 OA
ENDBRANCH  16  17
ENDBRANCH   3  16
BRANCH   5  20
ATOM     20  O   UNL     1       1.794   1.488   0.000  1.00  0.00    -0.425 OA
BRANCH  20  21
ATOM     21  C   UNL     1       3.218   1.959   0.000  1.00  0.00     0.308 C 
ATOM     22  C   UNL     1       3.522   3.428   0.000  1.00  0.00     0.139 C 
ATOM     23  O   UNL     1       4.117   1.337   0.000  1.00  0.00    -0.252 OA
ENDBRANCH  20  21
ENDBRANCH   5  20
BRANCH   6  24
ATOM     24  C   UNL     1       4.034  -0.507   0.000  1.00  0.00     0.163 C 
ATOM     25  C   UNL     1       4.385   0.529   0.000  1.00  0.00     0.093 C 
ATOM     26  O   UNL     1       5.154  -1.505   0.000  1.00  0.00    -0.294 OA
ENDBRANCH   6  24
TORSDOF 7
