REMARK SMILES CS[C@@H]1C(=O)N(C)C(=Cc2ccc(OCC=C(C)C)cc2)C(=O)N1C
REMARK SMILES IDX 10 1 11 2 12 3 13 4 20 5 21 6 9 7 8 8 3 9 4 10 24 11 6 12
REMARK SMILES IDX 22 13 5 14 25 15 7 16 23 17 2 18 1 19 14 20 15 21 16 22
REMARK SMILES IDX 17 23 18 24 19 25
REMARK H PARENT
ROOT
ATOM      1  C   UNL     1      -0.079   2.006   0.000  1.00  0.00    -0.023 A 
ATOM      2  C   UNL     1       0.481   0.614   0.000  1.00  0.00     0.012 A 
ATOM      3  C   UNL     1       1.966   0.403   0.000  1.00  0.00     0.047 A 
ATOM      4  C   UNL     1       2.892   1.583   0.000  1.00  0.00     0.119 A 
ATOM      5  C   UNL     1       2.332   2.975   0.000  1.00  0.00     0.047 A 
ATOM      6  C   UNL     1       0.847   3.186   0.000  1.00  0.00     0.012 A 
ENDROOT
BRANCH   1   7
ATOM      7  C   UNL     1      -1.563   2.217   0.000  1.00  0.00     0.040 C 
BRANCH   7   8
ATOM      8  C   UNL     1      -2.489   1.036   0.000  1.00  0.00     0.110 C 
ATOM      9  C   UNL     1      -4.340  -1.325   0.000  1.00  0.00     0.233 C 
ATOM     10  C   UNL     1      -4.899   0.067   0.000  1.00  0.00     0.260 C 
ATOM     11  N   UNL     1      -2.855  -1.536   0.000  1.00  0.00    -0.320 N 
ATOM     12  N   UNL     1      -3.974   1.247   0.000  1.00  0.00    -0.308 N 
ATOM     13  C   UNL     1      -1.929  -0.355   0.000  1.00  0.00     0.271 C 
ATOM     14  O   UNL     1      -6.384   0.278   0.000  1.00  0.00    -0.271 OA
ATOM     15  C   UNL     1      -2.295  -2.928   0.000  1.00  0.00     0.149 C 
ATOM     16  C   UNL     1      -4.534   2.639   0.000  1.00  0.00     0.153 C 
ATOM     17  O   UNL     1      -0.444  -0.567   0.000  1.00  0.00    -0.267 OA
BRANCH   9  18
ATOM     18  S   UNL     1      -5.265  -2.505   0.000  1.00  0.00    -0.131 SA
ATOM     19  C   UNL     1      -4.705  -3.897   0.000  1.00  0.00     0.088 C 
ENDBRANCH   9  18
ENDBRANCH   7   8
ENDBRANCH   1   7
BRANCH   4  20
ATOM     20  O   UNL     1       4.377   1.372   0.000  1.00  0.00    -0.490 OA
BRANCH  20  21
ATOM     21  C   UNL     1       4.936  -0.020   0.000  1.00  0.00     0.257 C 
BRANCH  21  22
ATOM     22  C   UNL     1       6.421  -0.231   0.000  1.00  0.00     0.012 C 
BRANCH  22  23
ATOM     23  C   UNL     1       6.981  -1.622   0.000  1.00  0.00    -0.077 C 
ATOM     24  C   UNL     1       8.466  -1.833   0.000  1.00  0.00     0.039 C 
ATOM     25  C   UNL     1       6.056  -2.803   0.000  1.00  0.00     0.039 C 
ENDBRANCH  22  23
ENDBRANCH  21  22
ENDBRANCH  20  21
ENDBRANCH   4  20
TORSDOF 7
