REMARK SMILES Cc1c(O)cc2c(c1O)C(=O)C[C@H](c1ccc(O)cc1)O2
REMARK SMILES IDX 1 1 2 2 3 3 5 4 6 5 21 6 13 7 12 8 10 9 11 10 7 11 8 12 4 13
REMARK SMILES IDX 9 15 14 17 15 18 20 19 16 20 19 21 17 22 18 23
REMARK H PARENT 4 14 9 16 18 24
ROOT
ATOM      1  C   UNL     1      -5.752  -0.133   0.000  1.00  0.00     0.052 C 
ATOM      2  C   UNL     1      -4.267  -0.341   0.000  1.00  0.00     0.034 A 
ATOM      3  C   UNL     1      -3.704  -1.731   0.000  1.00  0.00     0.125 A 
ATOM      4  C   UNL     1      -2.218  -1.939   0.000  1.00  0.00     0.094 A 
ATOM      5  C   UNL     1      -1.296  -0.756   0.000  1.00  0.00     0.138 A 
ATOM      6  O   UNL     1       0.190  -0.963   0.000  1.00  0.00    -0.484 OA
ATOM      7  C   UNL     1       1.113   0.219   0.000  1.00  0.00     0.211 C 
ATOM      8  C   UNL     1       0.549   1.610   0.000  1.00  0.00     0.131 C 
ATOM      9  C   UNL     1      -0.936   1.817   0.000  1.00  0.00     0.174 C 
ATOM     10  O   UNL     1      -1.499   3.208   0.000  1.00  0.00    -0.294 OA
ATOM     11  C   UNL     1      -1.859   0.634   0.000  1.00  0.00     0.102 A 
ATOM     12  C   UNL     1      -3.344   0.842   0.000  1.00  0.00     0.136 A 
ENDROOT
BRANCH   3  13
ATOM     13  O   UNL     1      -4.626  -2.914   0.000  1.00  0.00    -0.507 OA
ATOM     14  H   UNL     1       0.000   0.000   0.000  1.00  0.00     0.293 HD
ENDBRANCH   3  13
BRANCH  12  15
ATOM     15  O   UNL     1      -3.907   2.232   0.000  1.00  0.00    -0.507 OA
ATOM     16  H   UNL     1       0.000   0.000   0.000  1.00  0.00     0.293 HD
ENDBRANCH  12  15
BRANCH   7  17
ATOM     17  C   UNL     1       2.598   0.012   0.000  1.00  0.00    -0.007 A 
ATOM     18  C   UNL     1       3.161  -1.379   0.000  1.00  0.00     0.011 A 
ATOM     19  C   UNL     1       3.521   1.194   0.000  1.00  0.00     0.011 A 
ATOM     20  C   UNL     1       4.647  -1.586   0.000  1.00  0.00     0.046 A 
ATOM     21  C   UNL     1       5.006   0.987   0.000  1.00  0.00     0.046 A 
ATOM     22  C   UNL     1       5.569  -0.403   0.000  1.00  0.00     0.115 A 
BRANCH  22  23
ATOM     23  O   UNL     1       7.055  -0.611   0.000  1.00  0.00    -0.508 OA
ATOM     24  H   UNL     1       0.000   0.000   0.000  1.00  0.00     0.293 HD
ENDBRANCH  22  23
ENDBRANCH   7  17
TORSDOF 4
