REMARK SMILES CC[C@@]12CCCN3CC[C@]4(c5ccc(OC)c(O)c5N(C(C)=O)[C@@H]4CC1)C32
REMARK SMILES IDX 3 1 4 2 5 3 6 4 7 5 8 6 9 7 10 8 11 9 12 10 13 11 14 12
REMARK SMILES IDX 17 13 19 14 20 15 24 16 25 17 26 18 27 19 2 20 1 21 21 22
REMARK SMILES IDX 22 23 23 24 18 25 15 27 16 28
REMARK H PARENT 18 26
ROOT
ATOM      1  C   UNL     1       3.326   0.126   0.000  1.00  0.00    -0.013 C 
ATOM      2  C   UNL     1       4.590   0.934   0.000  1.00  0.00     0.010 C 
ATOM      3  C   UNL     1       4.522   2.433   0.000  1.00  0.00     0.016 C 
ATOM      4  C   UNL     1       3.190   3.123   0.000  1.00  0.00     0.085 C 
ATOM      5  N   UNL     1       1.926   2.315   0.000  1.00  0.00    -0.299 NA
ATOM      6  C   UNL     1       0.480   2.713   0.000  1.00  0.00     0.086 C 
ATOM      7  C   UNL     1      -0.345   1.461   0.000  1.00  0.00     0.031 C 
ATOM      8  C   UNL     1       0.590   0.289   0.000  1.00  0.00     0.036 C 
ATOM      9  C   UNL     1      -0.852   0.701   0.000  1.00  0.00    -0.010 A 
ATOM     10  C   UNL     1      -1.510   2.049   0.000  1.00  0.00     0.011 A 
ATOM     11  C   UNL     1      -3.006   2.153   0.000  1.00  0.00     0.051 A 
ATOM     12  C   UNL     1      -3.845   0.909   0.000  1.00  0.00     0.162 A 
ATOM     13  C   UNL     1      -3.186  -0.439   0.000  1.00  0.00     0.182 A 
ATOM     14  C   UNL     1      -1.690  -0.543   0.000  1.00  0.00     0.094 A 
ATOM     15  N   UNL     1      -0.766  -1.724   0.000  1.00  0.00    -0.305 N 
ATOM     16  C   UNL     1       0.643  -1.217   0.000  1.00  0.00     0.103 C 
ATOM     17  C   UNL     1       1.896  -2.043   0.000  1.00  0.00     0.027 C 
ATOM     18  C   UNL     1       3.237  -1.371   0.000  1.00  0.00     0.011 C 
ATOM     19  C   UNL     1       1.994   0.816   0.000  1.00  0.00     0.075 C 
ENDROOT
BRANCH   1  20
ATOM     20  C   UNL     1       3.394  -1.373   0.000  1.00  0.00     0.005 C 
ATOM     21  C   UNL     1       4.726  -2.063   0.000  1.00  0.00     0.004 C 
ENDBRANCH   1  20
BRANCH  15  22
ATOM     22  C   UNL     1      -1.179  -3.166   0.000  1.00  0.00     0.224 C 
ATOM     23  C   UNL     1      -0.136  -4.245   0.000  1.00  0.00     0.115 C 
ATOM     24  O   UNL     1      -2.634  -3.530   0.000  1.00  0.00    -0.275 OA
ENDBRANCH  15  22
BRANCH  13  25
ATOM     25  O   UNL     1      -4.025  -1.683   0.000  1.00  0.00    -0.503 OA
ATOM     26  H   UNL     1       0.000   0.000   0.000  1.00  0.00     0.293 HD
ENDBRANCH  13  25
BRANCH  12  27
ATOM     27  O   UNL     1      -5.341   1.013   0.000  1.00  0.00    -0.493 OA
ATOM     28  C   UNL     1      -5.999   2.361   0.000  1.00  0.00     0.278 C 
ENDBRANCH  12  27
TORSDOF 4
