REMARK SMILES CC(C)=CCOc1c2occc2cc2ccc(=O)oc12
REMARK SMILES IDX 5 1 4 2 2 3 1 4 3 5 6 6 7 7 8 8 20 9 9 10 12 11 14 12 19 13
REMARK SMILES IDX 10 14 11 15 13 16 15 17 17 18 16 19 18 20
REMARK H PARENT
ROOT
ATOM      1  C   UNL     1      -2.336  -0.697   0.000  1.00  0.00     0.257 C 
ENDROOT
BRANCH   1   2
ATOM      2  C   UNL     1      -3.390  -1.763   0.000  1.00  0.00     0.012 C 
BRANCH   2   3
ATOM      3  C   UNL     1      -4.841  -1.383   0.000  1.00  0.00    -0.077 C 
ATOM      4  C   UNL     1      -5.896  -2.449   0.000  1.00  0.00     0.039 C 
ATOM      5  C   UNL     1      -5.238   0.064   0.000  1.00  0.00     0.039 C 
ENDBRANCH   2   3
ENDBRANCH   1   2
BRANCH   1   6
ATOM      6  O   UNL     1      -0.884  -1.077   0.000  1.00  0.00    -0.482 OA
BRANCH   6   7
ATOM      7  C   UNL     1       0.170  -0.010   0.000  1.00  0.00     0.206 A 
ATOM      8  C   UNL     1      -0.226   1.437   0.000  1.00  0.00     0.179 A 
ATOM      9  C   UNL     1       1.621  -0.390   0.000  1.00  0.00     0.184 A 
ATOM     10  O   UNL     1      -1.566   2.110   0.000  1.00  0.00    -0.460 OA
ATOM     11  C   UNL     1       0.829   2.503   0.000  1.00  0.00     0.025 A 
ATOM     12  C   UNL     1       2.676   0.676   0.000  1.00  0.00     0.022 A 
ATOM     13  O   UNL     1       2.018  -1.837   0.000  1.00  0.00    -0.419 OA
ATOM     14  C   UNL     1      -1.340   3.593   0.000  1.00  0.00     0.196 A 
ATOM     15  C   UNL     1       0.140   3.836   0.000  1.00  0.00     0.051 A 
ATOM     16  C   UNL     1       2.280   2.123   0.000  1.00  0.00     0.024 A 
ATOM     17  C   UNL     1       4.127   0.296   0.000  1.00  0.00     0.019 A 
ATOM     18  C   UNL     1       3.469  -2.217   0.000  1.00  0.00     0.336 A 
ATOM     19  C   UNL     1       4.523  -1.151   0.000  1.00  0.00     0.094 A 
ATOM     20  O   UNL     1       3.865  -3.664   0.000  1.00  0.00    -0.246 OA
ENDBRANCH   6   7
ENDBRANCH   1   6
TORSDOF 4
