REMARK SMILES CC(C)[C@@H]1CC[C@@H](C)[C@@]23CC[C@](C)(O)[C@@H]2[C@@H]13
REMARK SMILES IDX 4 1 5 2 6 3 7 4 8 5 9 6 10 7 11 8 12 9 13 10 15 11 16 12
REMARK SMILES IDX 2 13 1 14 3 15 14 16
REMARK H PARENT 14 17
ROOT
ATOM      1  C   UNL     1       1.961   0.026   0.000  1.00  0.00    -0.004 C 
ATOM      2  C   UNL     1       2.269  -1.442   0.000  1.00  0.00     0.004 C 
ATOM      3  C   UNL     1       1.152  -2.443   0.000  1.00  0.00     0.004 C 
ATOM      4  C   UNL     1      -0.273  -1.976   0.000  1.00  0.00    -0.007 C 
ATOM      5  C   UNL     1      -1.390  -2.978   0.000  1.00  0.00     0.008 C 
ATOM      6  C   UNL     1      -0.582  -0.508   0.000  1.00  0.00    -0.018 C 
ATOM      7  C   UNL     1      -1.883  -1.256   0.000  1.00  0.00     0.011 C 
ATOM      8  C   UNL     1      -2.995  -0.249   0.000  1.00  0.00     0.036 C 
ATOM      9  C   UNL     1      -2.382   1.120   0.000  1.00  0.00     0.066 C 
ATOM     10  C   UNL     1      -3.807   1.587   0.000  1.00  0.00     0.042 C 
ATOM     11  C   UNL     1      -0.890   0.960   0.000  1.00  0.00     0.031 C 
ATOM     12  C   UNL     1       0.535   0.493   0.000  1.00  0.00     0.006 C 
ENDROOT
BRANCH   1  13
ATOM     13  C   UNL     1       3.078   1.027   0.000  1.00  0.00    -0.014 C 
ATOM     14  C   UNL     1       4.503   0.560   0.000  1.00  0.00     0.007 C 
ATOM     15  C   UNL     1       2.769   2.495   0.000  1.00  0.00     0.007 C 
ENDBRANCH   1  13
BRANCH   9  16
ATOM     16  O   UNL     1      -2.066   2.586   0.000  1.00  0.00    -0.390 OA
ATOM     17  H   UNL     1       0.000   0.000   0.000  1.00  0.00     0.211 HD
ENDBRANCH   9  16
TORSDOF 2
