REMARK SMILES CCOC(C)=O
REMARK SMILES IDX 3 1 2 2 1 3 4 4 5 5 6 6
REMARK H PARENT
ROOT
ATOM      1  O   UNL     1      -0.303  -0.588   0.000  1.00  0.00    -0.466 OA
ENDROOT
BRANCH   1   2
ATOM      2  C   UNL     1      -1.482   0.339   0.000  1.00  0.00     0.229 C 
ATOM      3  C   UNL     1      -2.875  -0.220   0.000  1.00  0.00     0.049 C 
ENDBRANCH   1   2
BRANCH   1   4
ATOM      4  C   UNL     1       1.089  -0.030   0.000  1.00  0.00     0.302 C 
ATOM      5  C   UNL     1       2.269  -0.956   0.000  1.00  0.00     0.139 C 
ATOM      6  O   UNL     1       1.302   1.455   0.000  1.00  0.00    -0.253 OA
ENDBRANCH   1   4
TORSDOF 2
