REMARK SMILES C=C1[C@@H]2CC[C@@]3(C)[C@@H](C2)[C@@H](C)CC[C@@]13C
REMARK SMILES IDX 1 1 2 2 3 3 4 4 5 5 6 6 7 7 8 8 9 9 10 10 11 11 12 12 13 13
REMARK SMILES IDX 14 14 15 15
REMARK H PARENT
ROOT
ATOM      1  C   UNL     1       2.576   0.199   0.000  1.00  0.00     0.009 C 
ATOM      2  C   UNL     1       1.077   0.243   0.000  1.00  0.00    -0.068 C 
ATOM      3  C   UNL     1       0.234  -2.935   0.000  1.00  0.00     0.015 C 
ATOM      4  C   UNL     1       1.554  -2.223   0.000  1.00  0.00     0.008 C 
ATOM      5  C   UNL     1       1.598  -0.724   0.000  1.00  0.00     0.008 C 
ATOM      6  C   UNL     1       0.322   0.064   0.000  1.00  0.00    -0.020 C 
ATOM      7  C   UNL     1       1.642   0.775   0.000  1.00  0.00     0.012 C 
ATOM      8  C   UNL     1      -0.999  -0.648   0.000  1.00  0.00    -0.001 C 
ATOM      9  C   UNL     1      -1.043  -2.147   0.000  1.00  0.00     0.012 C 
ATOM     10  C   UNL     1      -2.275   0.140   0.000  1.00  0.00    -0.011 C 
ATOM     11  C   UNL     1      -3.596  -0.572   0.000  1.00  0.00     0.008 C 
ATOM     12  C   UNL     1      -2.231   1.639   0.000  1.00  0.00     0.004 C 
ATOM     13  C   UNL     1      -0.911   2.351   0.000  1.00  0.00     0.012 C 
ATOM     14  C   UNL     1       0.365   1.563   0.000  1.00  0.00    -0.006 C 
ATOM     15  C   UNL     1       1.686   2.275   0.000  1.00  0.00     0.017 C 
ENDROOT
TORSDOF 0
