REMARK SMILES C=C1[C@@H](C2C=CC(=O)C(C)(C)[C@@H]2CC(=O)OC)[C@H](OC(C)=O)C[C@@]2(C)[C@H](c3ccoc3)C[C@@H]3O[C@]132
REMARK SMILES IDX 4 1 5 2 6 3 7 4 8 5 9 6 10 7 11 8 12 9 3 10 2 11 35 12 18 13
REMARK SMILES IDX 34 14 24 15 33 16 23 17 26 18 32 19 1 20 25 21 19 22 20 23
REMARK SMILES IDX 21 24 22 25 27 26 31 27 28 28 30 29 29 30 13 31 14 32 15 33
REMARK SMILES IDX 16 34 17 35
REMARK H PARENT
ROOT
ATOM      1  C   UNL     1      -1.746   1.102   0.000  1.00  0.00     0.027 C 
ATOM      2  C   UNL     1      -1.937   2.590   0.000  1.00  0.00    -0.019 C 
ATOM      3  C   UNL     1      -3.321   3.168   0.000  1.00  0.00     0.044 C 
ATOM      4  C   UNL     1      -4.514   2.260   0.000  1.00  0.00     0.161 C 
ATOM      5  O   UNL     1      -5.898   2.838   0.000  1.00  0.00    -0.294 OA
ATOM      6  C   UNL     1      -4.323   0.772   0.000  1.00  0.00     0.031 C 
ATOM      7  C   UNL     1      -4.653  -0.692   0.000  1.00  0.00     0.020 C 
ATOM      8  C   UNL     1      -5.822   0.842   0.000  1.00  0.00     0.020 C 
ATOM      9  C   UNL     1      -2.939   0.193   0.000  1.00  0.00     0.021 C 
ENDROOT
BRANCH   1  10
ATOM     10  C   UNL     1      -0.362   0.523   0.000  1.00  0.00     0.066 C 
ATOM     11  C   UNL     1      -0.172  -0.965   0.000  1.00  0.00    -0.035 C 
ATOM     12  C   UNL     1       1.212  -1.544   0.000  1.00  0.00     0.122 C 
ATOM     13  C   UNL     1       0.831   1.432   0.000  1.00  0.00     0.185 C 
ATOM     14  O   UNL     1       0.234  -2.681   0.000  1.00  0.00    -0.361 OA
ATOM     15  C   UNL     1       2.405  -0.635   0.000  1.00  0.00     0.014 C 
ATOM     16  C   UNL     1       1.708  -2.959   0.000  1.00  0.00     0.157 C 
ATOM     17  C   UNL     1       2.215   0.853   0.000  1.00  0.00     0.056 C 
ATOM     18  C   UNL     1       3.639  -1.488   0.000  1.00  0.00     0.034 C 
ATOM     19  C   UNL     1       3.208  -2.925   0.000  1.00  0.00     0.044 C 
ATOM     20  C   UNL     1      -1.365  -1.874   0.000  1.00  0.00     0.011 C 
ATOM     21  C   UNL     1       3.687   0.145   0.000  1.00  0.00     0.016 C 
BRANCH  13  22
ATOM     22  O   UNL     1       0.640   2.920   0.000  1.00  0.00    -0.462 OA
BRANCH  22  23
ATOM     23  C   UNL     1       1.833   3.829   0.000  1.00  0.00     0.302 C 
ATOM     24  C   UNL     1       1.643   5.317   0.000  1.00  0.00     0.139 C 
ATOM     25  O   UNL     1       3.217   3.250   0.000  1.00  0.00    -0.253 OA
ENDBRANCH  22  23
ENDBRANCH  13  22
BRANCH  18  26
ATOM     26  C   UNL     1       5.054  -0.993   0.000  1.00  0.00    -0.006 A 
ATOM     27  C   UNL     1       5.485   0.444   0.000  1.00  0.00     0.198 A 
ATOM     28  C   UNL     1       6.287  -1.847   0.000  1.00  0.00     0.046 A 
ATOM     29  O   UNL     1       6.985   0.478   0.000  1.00  0.00    -0.472 OA
ATOM     30  C   UNL     1       7.481  -0.937   0.000  1.00  0.00     0.195 A 
ENDBRANCH  18  26
ENDBRANCH   1  10
BRANCH   9  31
ATOM     31  C   UNL     1      -2.749  -1.295   0.000  1.00  0.00     0.128 C 
BRANCH  31  32
ATOM     32  C   UNL     1      -3.942  -2.204   0.000  1.00  0.00     0.305 C 
ATOM     33  O   UNL     1      -5.326  -1.625   0.000  1.00  0.00    -0.252 OA
BRANCH  32  34
ATOM     34  O   UNL     1      -3.751  -3.692   0.000  1.00  0.00    -0.469 OA
ATOM     35  C   UNL     1      -4.944  -4.601   0.000  1.00  0.00     0.282 C 
ENDBRANCH  32  34
ENDBRANCH  31  32
ENDBRANCH   9  31
TORSDOF 7
