REMARK SMILES COC(=O)C[C@@]1(C/C=C(\C)CC/C=C(\C)CCC=C(C)C)C[C@@H](OC(C)=O)C=CC1=O
REMARK SMILES IDX 11 1 9 2 10 3 8 4 7 5 6 6 22 7 30 8 23 9 29 10 28 11 31 12
REMARK SMILES IDX 5 13 3 14 4 15 2 16 1 17 24 18 25 19 26 20 27 21 12 22 13 23
REMARK SMILES IDX 14 24 15 25 16 26 17 27 18 28 19 29 20 30 21 31
REMARK H PARENT
ROOT
ATOM      1  C   UNL     1      -2.142  -2.249   0.000  1.00  0.00     0.034 C 
ENDROOT
BRANCH   1   2
ATOM      2  C   UNL     1      -0.692  -2.632   0.000  1.00  0.00    -0.077 C 
ATOM      3  C   UNL     1      -0.298  -4.079   0.000  1.00  0.00     0.039 C 
BRANCH   2   4
ATOM      4  C   UNL     1       0.365  -1.567   0.000  1.00  0.00    -0.027 C 
BRANCH   4   5
ATOM      5  C   UNL     1       1.815  -1.949   0.000  1.00  0.00     0.043 C 
BRANCH   5   6
ATOM      6  C   UNL     1       2.872  -0.884   0.000  1.00  0.00     0.051 C 
ATOM      7  C   UNL     1       3.500   0.477   0.000  1.00  0.00     0.066 C 
ATOM      8  C   UNL     1       3.737  -2.110   0.000  1.00  0.00     0.162 C 
ATOM      9  C   UNL     1       4.994   0.614   0.000  1.00  0.00     0.200 C 
ATOM     10  C   UNL     1       5.231  -1.973   0.000  1.00  0.00     0.047 C 
ATOM     11  C   UNL     1       5.859  -0.611   0.000  1.00  0.00     0.021 C 
ATOM     12  O   UNL     1       3.108  -3.472   0.000  1.00  0.00    -0.294 OA
BRANCH   6  13
ATOM     13  C   UNL     1       1.639  -0.029   0.000  1.00  0.00     0.138 C 
BRANCH  13  14
ATOM     14  C   UNL     1       1.764   1.466   0.000  1.00  0.00     0.306 C 
ATOM     15  O   UNL     1       3.121   2.105   0.000  1.00  0.00    -0.252 OA
BRANCH  14  16
ATOM     16  O   UNL     1       0.532   2.321   0.000  1.00  0.00    -0.469 OA
ATOM     17  C   UNL     1       0.657   3.816   0.000  1.00  0.00     0.282 C 
ENDBRANCH  14  16
ENDBRANCH  13  14
ENDBRANCH   6  13
BRANCH   9  18
ATOM     18  O   UNL     1       5.622   1.976   0.000  1.00  0.00    -0.458 OA
BRANCH  18  19
ATOM     19  C   UNL     1       7.116   2.113   0.000  1.00  0.00     0.303 C 
ATOM     20  C   UNL     1       7.744   3.475   0.000  1.00  0.00     0.139 C 
ATOM     21  O   UNL     1       7.981   0.888   0.000  1.00  0.00    -0.253 OA
ENDBRANCH  18  19
ENDBRANCH   9  18
ENDBRANCH   5   6
ENDBRANCH   4   5
ENDBRANCH   2   4
ENDBRANCH   1   2
BRANCH   1  22
ATOM     22  C   UNL     1      -2.536  -0.802   0.000  1.00  0.00     0.032 C 
BRANCH  22  23
ATOM     23  C   UNL     1      -3.987  -0.420   0.000  1.00  0.00    -0.028 C 
BRANCH  23  24
ATOM     24  C   UNL     1      -5.043  -1.485   0.000  1.00  0.00    -0.077 C 
ATOM     25  C   UNL     1      -4.649  -2.932   0.000  1.00  0.00     0.039 C 
BRANCH  24  26
ATOM     26  C   UNL     1      -6.494  -1.102   0.000  1.00  0.00     0.034 C 
BRANCH  26  27
ATOM     27  C   UNL     1      -6.888   0.345   0.000  1.00  0.00     0.032 C 
BRANCH  27  28
ATOM     28  C   UNL     1      -8.338   0.728   0.000  1.00  0.00    -0.028 C 
BRANCH  28  29
ATOM     29  C   UNL     1      -8.732   2.175   0.000  1.00  0.00    -0.080 C 
ATOM     30  C   UNL     1     -10.182   2.557   0.000  1.00  0.00     0.039 C 
ATOM     31  C   UNL     1      -7.676   3.240   0.000  1.00  0.00     0.039 C 
ENDBRANCH  28  29
ENDBRANCH  27  28
ENDBRANCH  26  27
ENDBRANCH  24  26
ENDBRANCH  23  24
ENDBRANCH  22  23
ENDBRANCH   1  22
TORSDOF 16
