REMARK SMILES C=CC[C@@]12CC=CC(=O)[C@@]1(O)O[C@@H](c1cc(OC)c3c(c1)OCO3)[C@H]2C
REMARK SMILES IDX 4 1 5 2 6 3 7 4 8 5 9 6 10 7 12 8 13 9 25 10 26 11 3 12 2 13
REMARK SMILES IDX 1 14 11 15 14 17 15 18 21 19 16 20 20 21 19 22 22 23 24 24
REMARK SMILES IDX 23 25 17 26 18 27
REMARK H PARENT 11 16
ROOT
ATOM      1  C   UNL     1       2.514  -0.216   0.000  1.00  0.00     0.045 C 
ATOM      2  C   UNL     1       3.862  -0.873   0.000  1.00  0.00     0.041 C 
ATOM      3  C   UNL     1       5.105  -0.035   0.000  1.00  0.00    -0.022 C 
ATOM      4  C   UNL     1       5.001   1.462   0.000  1.00  0.00     0.049 C 
ATOM      5  C   UNL     1       3.652   2.119   0.000  1.00  0.00     0.215 C 
ATOM      6  O   UNL     1       3.548   3.616   0.000  1.00  0.00    -0.289 OA
ATOM      7  C   UNL     1       2.409   1.281   0.000  1.00  0.00     0.237 C 
ATOM      8  O   UNL     1       0.953   1.643   0.000  1.00  0.00    -0.335 OA
ATOM      9  C   UNL     1       0.159   0.371   0.000  1.00  0.00     0.156 C 
ATOM     10  C   UNL     1       1.123  -0.778   0.000  1.00  0.00     0.032 C 
ATOM     11  C   UNL     1       0.760  -2.233   0.000  1.00  0.00     0.011 C 
ENDROOT
BRANCH   1  12
ATOM     12  C   UNL     1       2.461  -1.715   0.000  1.00  0.00     0.040 C 
BRANCH  12  13
ATOM     13  C   UNL     1       3.733  -2.510   0.000  1.00  0.00    -0.034 C 
ATOM     14  C   UNL     1       3.681  -4.009   0.000  1.00  0.00     0.004 C 
ENDBRANCH  12  13
ENDBRANCH   1  12
BRANCH   7  15
ATOM     15  O   UNL     1       2.148   2.758   0.000  1.00  0.00    -0.359 OA
ATOM     16  H   UNL     1       0.000   0.000   0.000  1.00  0.00     0.214 HD
ENDBRANCH   7  15
BRANCH   9  17
ATOM     17  C   UNL     1      -1.338   0.267   0.000  1.00  0.00    -0.011 A 
ATOM     18  C   UNL     1      -1.995  -1.081   0.000  1.00  0.00     0.057 A 
ATOM     19  C   UNL     1      -2.177   1.510   0.000  1.00  0.00     0.057 A 
ATOM     20  C   UNL     1      -3.492  -1.186   0.000  1.00  0.00     0.165 A 
ATOM     21  C   UNL     1      -3.673   1.406   0.000  1.00  0.00     0.170 A 
ATOM     22  C   UNL     1      -4.330   0.057   0.000  1.00  0.00     0.207 A 
ATOM     23  O   UNL     1      -4.752   2.448   0.000  1.00  0.00    -0.453 OA
ATOM     24  O   UNL     1      -5.816   0.266   0.000  1.00  0.00    -0.450 OA
ATOM     25  C   UNL     1      -6.076   1.743   0.000  1.00  0.00     0.468 C 
BRANCH  20  26
ATOM     26  O   UNL     1      -4.149  -2.534   0.000  1.00  0.00    -0.493 OA
ATOM     27  C   UNL     1      -3.310  -3.778   0.000  1.00  0.00     0.278 C 
ENDBRANCH  20  26
ENDBRANCH   9  17
TORSDOF 5
