REMARK SMILES CC1=CC[C@H]2C3C1[C@]2(C)CC[C@H]3C(C)C
REMARK SMILES IDX 1 1 2 2 3 3 4 4 5 5 6 6 7 7 8 8 9 9 10 10 11 11 12 12 13 13
REMARK SMILES IDX 14 14 15 15
REMARK H PARENT
ROOT
ATOM      1  C   UNL     1      -3.649   0.047   0.000  1.00  0.00     0.039 C 
ATOM      2  C   UNL     1      -2.285   0.670   0.000  1.00  0.00    -0.073 C 
ATOM      3  C   UNL     1      -2.143   2.163   0.000  1.00  0.00    -0.027 C 
ATOM      4  C   UNL     1      -0.778   2.787   0.000  1.00  0.00     0.031 C 
ATOM      5  C   UNL     1       0.444   1.917   0.000  1.00  0.00     0.003 C 
ATOM      6  C   UNL     1       0.301   0.423   0.000  1.00  0.00     0.004 C 
ATOM      7  C   UNL     1      -1.063  -0.200   0.000  1.00  0.00     0.024 C 
ATOM      8  C   UNL     1      -1.205  -1.693   0.000  1.00  0.00    -0.022 C 
ATOM      9  C   UNL     1      -2.570  -2.317   0.000  1.00  0.00     0.012 C 
ATOM     10  C   UNL     1       0.017  -2.563   0.000  1.00  0.00     0.008 C 
ATOM     11  C   UNL     1       1.381  -1.940   0.000  1.00  0.00     0.005 C 
ATOM     12  C   UNL     1       1.523  -0.447   0.000  1.00  0.00    -0.005 C 
ENDROOT
BRANCH  12  13
ATOM     13  C   UNL     1       2.888   0.177   0.000  1.00  0.00    -0.014 C 
ATOM     14  C   UNL     1       4.110  -0.693   0.000  1.00  0.00     0.007 C 
ATOM     15  C   UNL     1       3.030   1.670   0.000  1.00  0.00     0.007 C 
ENDBRANCH  12  13
TORSDOF 1
