REMARK SMILES C=CC[C@]12C=C(OC)[C@H](O)[C@](OC)([C@@H](c3ccc4c(c3)OCO4)[C@@H]1C)[C@H]2O
REMARK SMILES IDX 4 1 5 2 6 3 9 4 11 5 14 6 24 7 25 8 26 9 3 10 2 11 1 12
REMARK SMILES IDX 27 13 7 15 8 16 15 17 16 18 20 19 17 20 19 21 18 22 21 23
REMARK SMILES IDX 23 24 22 25 12 26 13 27 10 28
REMARK H PARENT 27 14 10 29
ROOT
ATOM      1  C   UNL     1       2.229   1.225   0.000  1.00  0.00     0.028 C 
ATOM      2  C   UNL     1       3.566   0.547   0.000  1.00  0.00     0.028 C 
ATOM      3  C   UNL     1       3.647  -0.951   0.000  1.00  0.00     0.124 C 
ATOM      4  C   UNL     1       2.390  -1.770   0.000  1.00  0.00     0.214 C 
ATOM      5  C   UNL     1       1.053  -1.091   0.000  1.00  0.00     0.134 C 
ATOM      6  C   UNL     1      -0.009  -0.032   0.000  1.00  0.00     0.061 C 
ATOM      7  C   UNL     1       0.669   1.305   0.000  1.00  0.00     0.010 C 
ATOM      8  C   UNL     1      -0.014   2.641   0.000  1.00  0.00     0.009 C 
ATOM      9  C   UNL     1       0.972   0.406   0.000  1.00  0.00     0.161 C 
ENDROOT
BRANCH   1  10
ATOM     10  C   UNL     1       2.148   2.723   0.000  1.00  0.00     0.041 C 
BRANCH  10  11
ATOM     11  C   UNL     1       3.405   3.542   0.000  1.00  0.00    -0.034 C 
ATOM     12  C   UNL     1       3.324   5.040   0.000  1.00  0.00     0.004 C 
ENDBRANCH  10  11
ENDBRANCH   1  10
BRANCH   9  13
ATOM     13  O   UNL     1      -0.366   1.085   0.000  1.00  0.00    -0.389 OA
ATOM     14  H   UNL     1       0.000   0.000   0.000  1.00  0.00     0.211 HD
ENDBRANCH   9  13
BRANCH   3  15
ATOM     15  O   UNL     1       4.985  -1.630   0.000  1.00  0.00    -0.499 OA
ATOM     16  C   UNL     1       5.066  -3.128   0.000  1.00  0.00     0.278 C 
ENDBRANCH   3  15
BRANCH   6  17
ATOM     17  C   UNL     1      -1.491  -0.269   0.000  1.00  0.00    -0.038 A 
ATOM     18  C   UNL     1      -2.026  -1.671   0.000  1.00  0.00     0.008 A 
ATOM     19  C   UNL     1      -2.437   0.895   0.000  1.00  0.00     0.054 A 
ATOM     20  C   UNL     1      -3.507  -1.908   0.000  1.00  0.00     0.051 A 
ATOM     21  C   UNL     1      -3.918   0.658   0.000  1.00  0.00     0.166 A 
ATOM     22  C   UNL     1      -4.453  -0.743   0.000  1.00  0.00     0.165 A 
ATOM     23  O   UNL     1      -5.085   1.600   0.000  1.00  0.00    -0.454 OA
ATOM     24  O   UNL     1      -5.951  -0.667   0.000  1.00  0.00    -0.454 OA
ATOM     25  C   UNL     1      -6.342   0.781   0.000  1.00  0.00     0.468 C 
ENDBRANCH   6  17
BRANCH   5  26
ATOM     26  O   UNL     1      -0.204  -1.910   0.000  1.00  0.00    -0.372 OA
ATOM     27  C   UNL     1      -0.123  -3.408   0.000  1.00  0.00     0.196 C 
ENDBRANCH   5  26
BRANCH   4  28
ATOM     28  O   UNL     1       2.471  -3.268   0.000  1.00  0.00    -0.382 OA
ATOM     29  H   UNL     1       0.000   0.000   0.000  1.00  0.00     0.211 HD
ENDBRANCH   4  28
TORSDOF 7
