REMARK SMILES OCC=Cc1ccc2c(c1)OCO2
REMARK SMILES IDX 2 1 1 2 3 4 4 5 5 6 6 7 10 8 7 9 9 10 8 11 11 12 13 13 12 14
REMARK H PARENT 1 3
ROOT
ATOM      1  C   UNL     1       4.616   0.469   0.000  1.00  0.00     0.183 C 
ENDROOT
BRANCH   1   2
ATOM      2  O   UNL     1       5.788  -0.466   0.000  1.00  0.00    -0.392 OA
ATOM      3  H   UNL     1       0.000   0.000   0.000  1.00  0.00     0.210 HD
ENDBRANCH   1   2
BRANCH   1   4
ATOM      4  C   UNL     1       3.219  -0.078   0.000  1.00  0.00     0.001 C 
BRANCH   4   5
ATOM      5  C   UNL     1       2.047   0.858   0.000  1.00  0.00     0.006 C 
BRANCH   5   6
ATOM      6  C   UNL     1       0.650   0.310   0.000  1.00  0.00    -0.022 A 
ATOM      7  C   UNL     1       0.426  -1.173   0.000  1.00  0.00     0.012 A 
ATOM      8  C   UNL     1      -0.522   1.246   0.000  1.00  0.00     0.058 A 
ATOM      9  C   UNL     1      -0.970  -1.720   0.000  1.00  0.00     0.051 A 
ATOM     10  C   UNL     1      -1.918   0.698   0.000  1.00  0.00     0.166 A 
ATOM     11  C   UNL     1      -2.143  -0.785   0.000  1.00  0.00     0.165 A 
ATOM     12  O   UNL     1      -3.260   1.370   0.000  1.00  0.00    -0.454 OA
ATOM     13  O   UNL     1      -3.622  -1.030   0.000  1.00  0.00    -0.454 OA
ATOM     14  C   UNL     1      -4.313   0.302   0.000  1.00  0.00     0.468 C 
ENDBRANCH   5   6
ENDBRANCH   4   5
ENDBRANCH   1   4
TORSDOF 4
