REMARK SMILES C=C[C@]1(C)CCC2[C@]3(C)CCC(=O)C(C)(C)C3C[C@@H](O)[C@]2(O)C1
REMARK SMILES IDX 3 1 4 2 5 3 6 4 7 5 8 6 9 7 10 8 11 9 12 10 13 11 14 12
REMARK SMILES IDX 15 13 16 14 17 15 18 16 19 17 21 18 23 19 2 20 1 21 22 22
REMARK SMILES IDX 20 24
REMARK H PARENT 22 23 20 25
ROOT
ATOM      1  C   UNL     1      -3.539   0.101   0.000  1.00  0.00    -0.012 C 
ATOM      2  C   UNL     1      -4.558  -1.000   0.000  1.00  0.00     0.016 C 
ATOM      3  C   UNL     1      -2.958   1.484   0.000  1.00  0.00     0.011 C 
ATOM      4  C   UNL     1      -1.470   1.673   0.000  1.00  0.00     0.008 C 
ATOM      5  C   UNL     1      -0.563   0.478   0.000  1.00  0.00     0.030 C 
ATOM      6  C   UNL     1       0.925   0.667   0.000  1.00  0.00    -0.023 C 
ATOM      7  C   UNL     1       0.018   1.861   0.000  1.00  0.00     0.012 C 
ATOM      8  C   UNL     1       1.506   2.050   0.000  1.00  0.00     0.015 C 
ATOM      9  C   UNL     1       2.994   2.239   0.000  1.00  0.00     0.077 C 
ATOM     10  C   UNL     1       3.901   1.044   0.000  1.00  0.00     0.138 C 
ATOM     11  O   UNL     1       5.389   1.233   0.000  1.00  0.00    -0.299 OA
ATOM     12  C   UNL     1       3.321  -0.339   0.000  1.00  0.00     0.027 C 
ATOM     13  C   UNL     1       3.248  -1.837   0.000  1.00  0.00     0.020 C 
ATOM     14  C   UNL     1       4.784  -0.670   0.000  1.00  0.00     0.020 C 
ATOM     15  C   UNL     1       1.833  -0.527   0.000  1.00  0.00     0.011 C 
ATOM     16  C   UNL     1       1.252  -1.911   0.000  1.00  0.00     0.040 C 
ATOM     17  C   UNL     1      -0.236  -2.099   0.000  1.00  0.00     0.146 C 
ATOM     18  C   UNL     1      -1.144  -0.905   0.000  1.00  0.00     0.095 C 
ATOM     19  C   UNL     1      -2.632  -1.094   0.000  1.00  0.00     0.049 C 
ENDROOT
BRANCH   1  20
ATOM     20  C   UNL     1      -4.800   0.913   0.000  1.00  0.00    -0.028 C 
ATOM     21  C   UNL     1      -4.728   2.411   0.000  1.00  0.00     0.004 C 
ENDBRANCH   1  20
BRANCH  18  22
ATOM     22  O   UNL     1      -1.724  -2.288   0.000  1.00  0.00    -0.387 OA
ATOM     23  H   UNL     1       0.000   0.000   0.000  1.00  0.00     0.211 HD
ENDBRANCH  18  22
BRANCH  17  24
ATOM     24  O   UNL     1      -0.817  -3.482   0.000  1.00  0.00    -0.390 OA
ATOM     25  H   UNL     1       0.000   0.000   0.000  1.00  0.00     0.211 HD
ENDBRANCH  17  24
TORSDOF 3
