REMARK SMILES C=C1CCCC(C)(C)[C@H]2C=C(C)CC[C@@H]12
REMARK SMILES IDX 9 1 10 2 11 3 12 4 13 5 14 6 15 7 2 8 1 9 3 10 6 12 7 13
REMARK SMILES IDX 8 14 5 15 4 16
REMARK H PARENT
REMARK Flexibility Score:    8.900
ROOT
ATOM      1  C   UNL     1       0.203  -0.456   0.000  1.00  0.00     0.024 C 
ATOM      2  C   UNL     1       1.608  -0.981   0.000  1.00  0.00    -0.023 C 
ATOM      3  C   UNL     1       2.765  -0.027   0.000  1.00  0.00    -0.077 C 
ATOM      4  C   UNL     1       4.170  -0.552   0.000  1.00  0.00     0.039 C 
ATOM      5  C   UNL     1       2.518   1.453   0.000  1.00  0.00     0.031 C 
ATOM      6  C   UNL     1       1.113   1.978   0.000  1.00  0.00     0.013 C 
ATOM      7  C   UNL     1      -0.045   1.024   0.000  1.00  0.00     0.022 C 
ENDROOT
BRANCH   7   8
ATOM      8  C   UNL     1      -1.356   1.753   0.000  1.00  0.00    -0.074 C 
ATOM      9  C   UNL     1      -1.268   3.250   0.000  1.00  0.00     0.008 C 
BRANCH   8  10
ATOM     10  C   UNL     1      -2.743   1.182   0.000  1.00  0.00     0.031 CG0
ATOM     11  G   UNL     1      -3.162  -0.258   0.000  1.00  0.00     0.000 G0
ENDBRANCH   8  10
ENDBRANCH   7   8
BRANCH   1  12
ATOM     12  C   UNL     1      -0.799  -1.571   0.000  1.00  0.00    -0.029 C 
ATOM     13  C   UNL     1       0.511  -2.300   0.000  1.00  0.00     0.012 C 
ATOM     14  C   UNL     1      -1.218  -3.012   0.000  1.00  0.00     0.012 C 
BRANCH  12  15
ATOM     15  C   UNL     1      -2.297  -1.484   0.000  1.00  0.00     0.007 C 
BRANCH  15  16
ATOM     16  C   UNL     1      -3.162  -0.258   0.000  1.00  0.00     0.005 CG0
ATOM     17  G   UNL     1      -2.743   1.182   0.000  1.00  0.00     0.000 G0
ENDBRANCH  15  16
ENDBRANCH  12  15
ENDBRANCH   1  12
TORSDOF 0
