REMARK SMILES C=C/C(C)=C\C[C@]1(C)[C@H](C)[C@@H](OC(=O)CCC)[C@H](O)[C@@]23C(=C[C@H](OC(C)=O)C[C@@H]12)[C@@H](OC(C)=O)O[C@H]3OC(C)=O
REMARK SMILES IDX 7 1 8 2 9 3 10 4 11 5 18 6 20 7 21 8 22 9 23 10 28 11 29 12
REMARK SMILES IDX 30 13 35 14 36 15 6 16 5 17 3 18 4 19 2 20 1 21 12 22 13 23
REMARK SMILES IDX 14 24 15 25 16 26 17 27 19 28 24 30 25 31 26 32 27 33 37 34
REMARK SMILES IDX 38 35 39 36 40 37 31 38 32 39 33 40 34 41
REMARK H PARENT 19 29
ROOT
ATOM      1  C   UNL     1      -0.640   1.542   0.000  1.00  0.00    -0.019 C 
ATOM      2  C   UNL     1      -0.085   2.936   0.000  1.00  0.00     0.012 C 
ATOM      3  C   UNL     1      -1.637   0.422   0.000  1.00  0.00     0.036 C 
ATOM      4  C   UNL     1      -3.106   0.726   0.000  1.00  0.00     0.012 C 
ATOM      5  C   UNL     1      -1.166  -1.002   0.000  1.00  0.00     0.209 C 
ATOM      6  C   UNL     1       0.302  -1.306   0.000  1.00  0.00     0.172 C 
ATOM      7  C   UNL     1       1.300  -0.186   0.000  1.00  0.00     0.093 C 
ATOM      8  C   UNL     1       2.769  -0.490   0.000  1.00  0.00     0.013 C 
ATOM      9  C   UNL     1       3.767   0.629   0.000  1.00  0.00     0.024 C 
ATOM     10  C   UNL     1       3.296   2.054   0.000  1.00  0.00     0.200 C 
ATOM     11  C   UNL     1       1.827   2.358   0.000  1.00  0.00     0.055 C 
ATOM     12  C   UNL     1       0.829   1.238   0.000  1.00  0.00     0.019 C 
ATOM     13  C   UNL     1       2.484  -0.016   0.000  1.00  0.00     0.343 C 
ATOM     14  O   UNL     1       1.992  -0.542   0.000  1.00  0.00    -0.298 OA
ATOM     15  C   UNL     1       1.750   0.136   0.000  1.00  0.00     0.328 C 
ENDROOT
BRANCH   1  16
ATOM     16  C   UNL     1      -1.916   2.330   0.000  1.00  0.00     0.035 C 
BRANCH  16  17
ATOM     17  C   UNL     1      -1.871   3.829   0.000  1.00  0.00    -0.023 C 
BRANCH  17  18
ATOM     18  C   UNL     1      -3.148   4.618   0.000  1.00  0.00    -0.056 C 
ATOM     19  C   UNL     1      -3.103   6.117   0.000  1.00  0.00     0.044 C 
BRANCH  18  20
ATOM     20  C   UNL     1      -4.468   3.906   0.000  1.00  0.00    -0.005 C 
ATOM     21  C   UNL     1      -5.745   4.695   0.000  1.00  0.00     0.009 C 
ENDBRANCH  18  20
ENDBRANCH  17  18
ENDBRANCH  16  17
ENDBRANCH   1  16
BRANCH   5  22
ATOM     22  O   UNL     1      -2.164  -2.122   0.000  1.00  0.00    -0.459 OA
BRANCH  22  23
ATOM     23  C   UNL     1      -3.633  -1.818   0.000  1.00  0.00     0.306 C 
ATOM     24  O   UNL     1      -4.104  -0.394   0.000  1.00  0.00    -0.252 OA
BRANCH  23  25
ATOM     25  C   UNL     1      -4.631  -2.938   0.000  1.00  0.00     0.122 C 
BRANCH  25  26
ATOM     26  C   UNL     1      -6.100  -2.634   0.000  1.00  0.00     0.008 C 
ATOM     27  C   UNL     1      -7.098  -3.754   0.000  1.00  0.00     0.004 C 
ENDBRANCH  25  26
ENDBRANCH  23  25
ENDBRANCH  22  23
ENDBRANCH   5  22
BRANCH   6  28
ATOM     28  O   UNL     1       0.415  -2.802   0.000  1.00  0.00    -0.388 OA
ATOM     29  H   UNL     1       0.000   0.000   0.000  1.00  0.00     0.211 HD
ENDBRANCH   6  28
BRANCH  10  30
ATOM     30  O   UNL     1       4.294   3.174   0.000  1.00  0.00    -0.458 OA
BRANCH  30  31
ATOM     31  C   UNL     1       5.763   2.869   0.000  1.00  0.00     0.303 C 
ATOM     32  C   UNL     1       6.760   3.989   0.000  1.00  0.00     0.139 C 
ATOM     33  O   UNL     1       6.234   1.445   0.000  1.00  0.00    -0.253 OA
ENDBRANCH  30  31
ENDBRANCH  10  30
BRANCH  15  34
ATOM     34  O   UNL     1      -0.934  -1.654   0.000  1.00  0.00    -0.435 OA
BRANCH  34  35
ATOM     35  C   UNL     1      -1.537  -3.027   0.000  1.00  0.00     0.304 C 
ATOM     36  C   UNL     1      -3.028  -3.192   0.000  1.00  0.00     0.139 C 
ATOM     37  O   UNL     1      -0.649  -4.236   0.000  1.00  0.00    -0.253 OA
ENDBRANCH  34  35
ENDBRANCH  15  34
BRANCH  13  38
ATOM     38  O   UNL     1       4.237  -2.725   0.000  1.00  0.00    -0.432 OA
BRANCH  38  39
ATOM     39  C   UNL     1       4.245  -4.225   0.000  1.00  0.00     0.305 C 
ATOM     40  C   UNL     1       5.548  -4.968   0.000  1.00  0.00     0.139 C 
ATOM     41  O   UNL     1       2.950  -4.981   0.000  1.00  0.00    -0.253 OA
ENDBRANCH  38  39
ENDBRANCH  13  38
TORSDOF 15
