REMARK SMILES CCc1c(C)ccc2c1C(=O)C[C@H]1C(C)(C)CCC[C@]21C
REMARK SMILES IDX 3 1 4 2 5 3 6 4 7 5 8 6 9 7 10 8 11 9 12 10 13 11 14 12
REMARK SMILES IDX 15 13 16 14 17 15 18 16 19 17 20 18 21 19 2 20 1 21
REMARK H PARENT
ROOT
ATOM      1  C   UNL     1      -2.612  -0.319   0.000  1.00  0.00    -0.034 A 
ATOM      2  C   UNL     1      -3.289   1.019   0.000  1.00  0.00    -0.047 A 
ATOM      3  C   UNL     1      -4.787   1.102   0.000  1.00  0.00     0.044 C 
ATOM      4  C   UNL     1      -2.469   2.275   0.000  1.00  0.00     0.004 A 
ATOM      5  C   UNL     1      -0.972   2.193   0.000  1.00  0.00     0.005 A 
ATOM      6  C   UNL     1      -0.294   0.855   0.000  1.00  0.00    -0.031 A 
ATOM      7  C   UNL     1      -1.114  -0.401   0.000  1.00  0.00     0.025 A 
ATOM      8  C   UNL     1      -0.437  -1.740   0.000  1.00  0.00     0.163 C 
ATOM      9  O   UNL     1      -1.257  -2.995   0.000  1.00  0.00    -0.294 OA
ATOM     10  C   UNL     1       1.061  -1.822   0.000  1.00  0.00     0.086 C 
ATOM     11  C   UNL     1       1.881  -0.566   0.000  1.00  0.00     0.013 C 
ATOM     12  C   UNL     1       3.379  -0.648   0.000  1.00  0.00    -0.031 C 
ATOM     13  C   UNL     1       4.758  -1.238   0.000  1.00  0.00     0.011 C 
ATOM     14  C   UNL     1       3.038  -2.109   0.000  1.00  0.00     0.011 C 
ATOM     15  C   UNL     1       4.199   0.607   0.000  1.00  0.00     0.007 C 
ATOM     16  C   UNL     1       3.522   1.946   0.000  1.00  0.00     0.001 C 
ATOM     17  C   UNL     1       2.024   2.028   0.000  1.00  0.00     0.012 C 
ATOM     18  C   UNL     1       1.204   0.772   0.000  1.00  0.00    -0.003 C 
ATOM     19  C   UNL     1       0.526   2.110   0.000  1.00  0.00     0.017 C 
ENDROOT
BRANCH   1  20
ATOM     20  C   UNL     1      -3.432  -1.575   0.000  1.00  0.00     0.033 C 
ATOM     21  C   UNL     1      -4.930  -1.492   0.000  1.00  0.00     0.009 C 
ENDBRANCH   1  20
TORSDOF 1
