REMARK SMILES CC(C)(O)[C@@H]1CC[C@@](C)([C@H]2CC[C@]3(C)[C@@H]2CC[C@@H]2[C@@]4(C)CC[C@@H](O)C(C)(C)[C@@H]4CC[C@]23C)O1
REMARK SMILES IDX 5 1 6 2 7 3 8 4 9 5 33 6 2 7 1 8 3 9 4 10 10 12 11 13 15 14
REMARK SMILES IDX 12 15 13 16 16 17 31 18 17 19 30 20 18 21 29 22 19 23 28 24
REMARK SMILES IDX 21 25 25 26 22 27 23 28 14 29 32 30 20 31 26 32 27 33 24 34
REMARK H PARENT 4 11 24 35
ROOT
ATOM      1  C   UNL     1       5.901   0.222   0.000  1.00  0.00     0.150 C 
ATOM      2  C   UNL     1       5.946   1.721   0.000  1.00  0.00     0.038 C 
ATOM      3  C   UNL     1       4.535   2.228   0.000  1.00  0.00     0.038 C 
ATOM      4  C   UNL     1       3.616   1.042   0.000  1.00  0.00     0.069 C 
ATOM      5  C   UNL     1       2.533   2.079   0.000  1.00  0.00     0.042 C 
ATOM      6  O   UNL     1       4.460  -0.198   0.000  1.00  0.00    -0.369 OA
ENDROOT
BRANCH   1   7
ATOM      7  C   UNL     1       7.087  -0.697   0.000  1.00  0.00     0.085 C 
ATOM      8  C   UNL     1       8.005   0.490   0.000  1.00  0.00     0.044 C 
ATOM      9  C   UNL     1       6.168  -1.883   0.000  1.00  0.00     0.044 C 
BRANCH   7  10
ATOM     10  O   UNL     1       8.273  -1.615   0.000  1.00  0.00    -0.388 OA
ATOM     11  H   UNL     1       0.000   0.000   0.000  1.00  0.00     0.211 HD
ENDBRANCH   7  10
ENDBRANCH   1   7
BRANCH   4  12
ATOM     12  C   UNL     1       2.471   0.072   0.000  1.00  0.00     0.025 C 
ATOM     13  C   UNL     1       2.583  -1.423   0.000  1.00  0.00     0.007 C 
ATOM     14  C   UNL     1       1.014   0.429   0.000  1.00  0.00     0.001 C 
ATOM     15  C   UNL     1       1.194  -1.991   0.000  1.00  0.00     0.008 C 
ATOM     16  C   UNL     1       0.225  -0.847   0.000  1.00  0.00    -0.024 C 
ATOM     17  C   UNL     1       0.304   1.750   0.000  1.00  0.00     0.005 C 
ATOM     18  C   UNL     1      -1.274  -0.801   0.000  1.00  0.00    -0.024 C 
ATOM     19  C   UNL     1      -1.195   1.796   0.000  1.00  0.00     0.005 C 
ATOM     20  C   UNL     1      -2.063  -2.076   0.000  1.00  0.00     0.008 C 
ATOM     21  C   UNL     1      -1.984   0.520   0.000  1.00  0.00     0.002 C 
ATOM     22  C   UNL     1      -3.563  -2.031   0.000  1.00  0.00     0.005 C 
ATOM     23  C   UNL     1      -3.483   0.566   0.000  1.00  0.00    -0.026 C 
ATOM     24  C   UNL     1      -4.273  -0.709   0.000  1.00  0.00     0.003 C 
ATOM     25  C   UNL     1      -4.194   1.887   0.000  1.00  0.00     0.010 C 
ATOM     26  C   UNL     1      -5.772  -0.664   0.000  1.00  0.00    -0.006 C 
ATOM     27  C   UNL     1      -5.693   1.933   0.000  1.00  0.00     0.033 C 
ATOM     28  C   UNL     1      -6.482   0.658   0.000  1.00  0.00     0.120 C 
ATOM     29  C   UNL     1      -0.426  -2.198   0.000  1.00  0.00     0.012 C 
ATOM     30  C   UNL     1      -0.485   0.475   0.000  1.00  0.00     0.012 C 
ATOM     31  C   UNL     1      -2.694   1.842   0.000  1.00  0.00     0.012 C 
ATOM     32  C   UNL     1      -5.557  -2.148   0.000  1.00  0.00     0.014 C 
ATOM     33  C   UNL     1      -7.197  -1.133   0.000  1.00  0.00     0.014 C 
BRANCH  28  34
ATOM     34  O   UNL     1      -7.981   0.703   0.000  1.00  0.00    -0.393 OA
ATOM     35  H   UNL     1       0.000   0.000   0.000  1.00  0.00     0.210 HD
ENDBRANCH  28  34
ENDBRANCH   4  12
TORSDOF 4
