REMARK SMILES C=C[C@]1(C)CC[C@@H](C(C)(C)O)C[C@H]1C(=C)C
REMARK SMILES IDX 3 1 4 2 5 3 6 4 7 5 12 6 13 7 2 8 1 9 14 10 15 11 16 12 8 13
REMARK SMILES IDX 9 14 10 15 11 16
REMARK H PARENT 11 17
ROOT
ATOM      1  C   UNL     1       1.415  -0.726   0.000  1.00  0.00    -0.008 C 
ATOM      2  C   UNL     1       2.740  -0.021   0.000  1.00  0.00     0.016 C 
ATOM      3  C   UNL     1       0.412  -1.841   0.000  1.00  0.00     0.012 C 
ATOM      4  C   UNL     1      -1.055  -1.529   0.000  1.00  0.00     0.007 C 
ATOM      5  C   UNL     1      -1.519  -0.102   0.000  1.00  0.00     0.021 C 
ATOM      6  C   UNL     1      -0.516   1.012   0.000  1.00  0.00     0.015 C 
ATOM      7  C   UNL     1       0.952   0.701   0.000  1.00  0.00     0.024 C 
ENDROOT
BRANCH   1   8
ATOM      8  C   UNL     1       2.339  -1.907   0.000  1.00  0.00    -0.028 C 
ATOM      9  C   UNL     1       1.777  -3.298   0.000  1.00  0.00     0.004 C 
ENDBRANCH   1   8
BRANCH   7  10
ATOM     10  C   UNL     1       1.955   1.816   0.000  1.00  0.00    -0.077 C 
ATOM     11  C   UNL     1       1.491   3.242   0.000  1.00  0.00     0.008 C 
ATOM     12  C   UNL     1       3.422   1.504   0.000  1.00  0.00     0.039 C 
ENDBRANCH   7  10
BRANCH   5  13
ATOM     13  C   UNL     1      -2.986   0.209   0.000  1.00  0.00     0.062 C 
ATOM     14  C   UNL     1      -3.298  -1.258   0.000  1.00  0.00     0.042 C 
ATOM     15  C   UNL     1      -2.675   1.677   0.000  1.00  0.00     0.042 C 
BRANCH  13  16
ATOM     16  O   UNL     1      -4.454   0.521   0.000  1.00  0.00    -0.390 OA
ATOM     17  H   UNL     1       0.000   0.000   0.000  1.00  0.00     0.211 HD
ENDBRANCH  13  16
ENDBRANCH   5  13
TORSDOF 4
