REMARK SMILES CC[C@]12CCCN3CC[C@@]4(c5cccc(OC)c5N(C(C)=O)[C@H]4CC1)[C@@H]32
REMARK SMILES IDX 3 1 4 2 5 3 6 4 7 5 8 6 9 7 10 8 11 9 12 10 13 11 14 12
REMARK SMILES IDX 15 13 18 14 19 15 23 16 24 17 25 18 26 19 2 20 1 21 20 22
REMARK SMILES IDX 21 23 22 24 16 25 17 26
REMARK H PARENT
ROOT
ATOM      1  C   UNL     1       3.086  -0.451   0.000  1.00  0.00    -0.013 C 
ATOM      2  C   UNL     1       4.508   0.024   0.000  1.00  0.00     0.010 C 
ATOM      3  C   UNL     1       4.809   1.494   0.000  1.00  0.00     0.016 C 
ATOM      4  C   UNL     1       3.686   2.488   0.000  1.00  0.00     0.085 C 
ATOM      5  N   UNL     1       2.263   2.013   0.000  1.00  0.00    -0.299 NA
ATOM      6  C   UNL     1       0.958   2.753   0.000  1.00  0.00     0.086 C 
ATOM      7  C   UNL     1      -0.149   1.740   0.000  1.00  0.00     0.031 C 
ATOM      8  C   UNL     1       0.472   0.375   0.000  1.00  0.00     0.036 C 
ATOM      9  C   UNL     1      -0.825   1.128   0.000  1.00  0.00    -0.010 A 
ATOM     10  C   UNL     1      -1.134   2.595   0.000  1.00  0.00     0.007 A 
ATOM     11  C   UNL     1      -2.560   3.062   0.000  1.00  0.00     0.004 A 
ATOM     12  C   UNL     1      -3.676   2.060   0.000  1.00  0.00     0.049 A 
ATOM     13  C   UNL     1      -3.368   0.593   0.000  1.00  0.00     0.142 A 
ATOM     14  C   UNL     1      -1.942   0.126   0.000  1.00  0.00     0.090 A 
ATOM     15  N   UNL     1      -1.335  -1.245   0.000  1.00  0.00    -0.305 N 
ATOM     16  C   UNL     1       0.156  -1.098   0.000  1.00  0.00     0.103 C 
ATOM     17  C   UNL     1       1.169  -2.205   0.000  1.00  0.00     0.027 C 
ATOM     18  C   UNL     1       2.633  -1.881   0.000  1.00  0.00     0.011 C 
ATOM     19  C   UNL     1       1.963   0.544   0.000  1.00  0.00     0.075 C 
ENDROOT
BRANCH   1  20
ATOM     20  C   UNL     1       2.785  -1.921   0.000  1.00  0.00     0.005 C 
ATOM     21  C   UNL     1       3.908  -2.916   0.000  1.00  0.00     0.004 C 
ENDBRANCH   1  20
BRANCH  15  22
ATOM     22  C   UNL     1      -2.087  -2.543   0.000  1.00  0.00     0.224 C 
ATOM     23  C   UNL     1      -1.340  -3.844   0.000  1.00  0.00     0.115 C 
ATOM     24  O   UNL     1      -3.587  -2.540   0.000  1.00  0.00    -0.275 OA
ENDBRANCH  15  22
BRANCH  13  25
ATOM     25  O   UNL     1      -4.484  -0.409   0.000  1.00  0.00    -0.495 OA
ATOM     26  C   UNL     1      -5.910   0.057   0.000  1.00  0.00     0.278 C 
ENDBRANCH  13  25
TORSDOF 3
