REMARK SMILES COc1ccc([C@H]2CC(=O)c3c(O)c(C)c(OC)c(C)c3O2)cc1OC
REMARK SMILES IDX 7 1 8 2 9 3 10 4 11 5 12 6 14 7 15 8 16 9 19 10 20 11 21 12
REMARK SMILES IDX 22 13 6 14 3 15 4 16 24 17 5 18 23 19 2 20 1 21 25 22 26 23
REMARK SMILES IDX 13 24 17 26 18 27
REMARK H PARENT 13 25
ROOT
ATOM      1  C   UNL     1      -0.714  -0.231   0.000  1.00  0.00     0.211 C 
ATOM      2  C   UNL     1      -0.307  -1.675   0.000  1.00  0.00     0.131 C 
ATOM      3  C   UNL     1       1.147  -2.044   0.000  1.00  0.00     0.174 C 
ATOM      4  O   UNL     1       1.554  -3.488   0.000  1.00  0.00    -0.294 OA
ATOM      5  C   UNL     1       2.194  -0.970   0.000  1.00  0.00     0.102 A 
ATOM      6  C   UNL     1       3.648  -1.340   0.000  1.00  0.00     0.136 A 
ATOM      7  C   UNL     1       4.695  -0.265   0.000  1.00  0.00     0.034 A 
ATOM      8  C   UNL     1       6.149  -0.635   0.000  1.00  0.00     0.052 C 
ATOM      9  C   UNL     1       4.288   1.178   0.000  1.00  0.00     0.132 A 
ATOM     10  C   UNL     1       2.834   1.548   0.000  1.00  0.00     0.034 A 
ATOM     11  C   UNL     1       2.427   2.992   0.000  1.00  0.00     0.052 C 
ATOM     12  C   UNL     1       1.787   0.474   0.000  1.00  0.00     0.141 A 
ATOM     13  O   UNL     1       0.333   0.843   0.000  1.00  0.00    -0.484 OA
ENDROOT
BRANCH   1  14
ATOM     14  C   UNL     1      -2.167   0.139   0.000  1.00  0.00    -0.003 A 
ATOM     15  C   UNL     1      -5.075   0.877   0.000  1.00  0.00     0.160 A 
ATOM     16  C   UNL     1      -4.028   1.952   0.000  1.00  0.00     0.051 A 
ATOM     17  C   UNL     1      -4.668  -0.566   0.000  1.00  0.00     0.161 A 
ATOM     18  C   UNL     1      -2.574   1.582   0.000  1.00  0.00     0.011 A 
ATOM     19  C   UNL     1      -3.214  -0.936   0.000  1.00  0.00     0.058 A 
BRANCH  15  20
ATOM     20  O   UNL     1      -6.529   1.247   0.000  1.00  0.00    -0.493 OA
ATOM     21  C   UNL     1      -6.936   2.691   0.000  1.00  0.00     0.278 C 
ENDBRANCH  15  20
BRANCH  17  22
ATOM     22  O   UNL     1      -5.715  -1.641   0.000  1.00  0.00    -0.493 OA
ATOM     23  C   UNL     1      -5.308  -3.084   0.000  1.00  0.00     0.278 C 
ENDBRANCH  17  22
ENDBRANCH   1  14
BRANCH   6  24
ATOM     24  O   UNL     1       4.055  -2.783   0.000  1.00  0.00    -0.507 OA
ATOM     25  H   UNL     1       0.000   0.000   0.000  1.00  0.00     0.293 HD
ENDBRANCH   6  24
BRANCH   9  26
ATOM     26  O   UNL     1       5.335   2.253   0.000  1.00  0.00    -0.496 OA
ATOM     27  C   UNL     1       6.788   1.883   0.000  1.00  0.00     0.278 C 
ENDBRANCH   9  26
TORSDOF 5
