REMARK SMILES Cn1c2c(O)cccc2c(=O)c2c(O)c(-c3ccccc3)c3c(c21)C=CC(C)(C)O3
REMARK SMILES IDX 1 1 2 2 3 3 4 4 6 5 7 6 8 7 9 8 10 9 11 10 12 11 13 12 15 13
REMARK SMILES IDX 22 14 30 15 27 16 28 17 29 18 26 19 25 20 23 21 24 22 5 23
REMARK SMILES IDX 14 25 16 27 17 28 21 29 18 30 20 31 19 32
REMARK H PARENT 5 24 14 26
ROOT
ATOM      1  C   UNL     1       2.586  -2.556   0.000  1.00  0.00     0.150 C 
ATOM      2  N   UNL     1       2.413  -1.066   0.000  1.00  0.00    -0.340 N 
ATOM      3  C   UNL     1       3.618  -0.171   0.000  1.00  0.00     0.095 A 
ATOM      4  C   UNL     1       4.994  -0.766   0.000  1.00  0.00     0.139 A 
ATOM      5  C   UNL     1       6.198   0.128   0.000  1.00  0.00     0.048 A 
ATOM      6  C   UNL     1       6.026   1.618   0.000  1.00  0.00     0.005 A 
ATOM      7  C   UNL     1       4.649   2.213   0.000  1.00  0.00     0.014 A 
ATOM      8  C   UNL     1       3.445   1.319   0.000  1.00  0.00     0.050 A 
ATOM      9  C   UNL     1       2.068   1.914   0.000  1.00  0.00     0.201 A 
ATOM     10  O   UNL     1       1.895   3.404   0.000  1.00  0.00    -0.288 OA
ATOM     11  C   UNL     1       0.864   1.020   0.000  1.00  0.00     0.090 A 
ATOM     12  C   UNL     1      -0.513   1.615   0.000  1.00  0.00     0.140 A 
ATOM     13  C   UNL     1      -1.717   0.720   0.000  1.00  0.00     0.067 A 
ATOM     14  C   UNL     1      -1.544  -0.770   0.000  1.00  0.00     0.141 A 
ATOM     15  O   UNL     1      -2.748  -1.664   0.000  1.00  0.00    -0.482 OA
ATOM     16  C   UNL     1      -2.575  -3.154   0.000  1.00  0.00     0.122 C 
ATOM     17  C   UNL     1      -2.922  -4.614   0.000  1.00  0.00     0.061 C 
ATOM     18  C   UNL     1      -4.073  -3.066   0.000  1.00  0.00     0.061 C 
ATOM     19  C   UNL     1      -1.198  -3.750   0.000  1.00  0.00     0.021 C 
ATOM     20  C   UNL     1       0.006  -2.855   0.000  1.00  0.00     0.014 C 
ATOM     21  C   UNL     1      -0.167  -1.365   0.000  1.00  0.00     0.042 A 
ATOM     22  C   UNL     1       1.037  -0.470   0.000  1.00  0.00     0.067 A 
ENDROOT
BRANCH   4  23
ATOM     23  O   UNL     1       5.167  -2.256   0.000  1.00  0.00    -0.506 OA
ATOM     24  H   UNL     1       0.000   0.000   0.000  1.00  0.00     0.293 HD
ENDBRANCH   4  23
BRANCH  12  25
ATOM     25  O   UNL     1      -0.686   3.105   0.000  1.00  0.00    -0.506 OA
ATOM     26  H   UNL     1       0.000   0.000   0.000  1.00  0.00     0.293 HD
ENDBRANCH  12  25
BRANCH  13  27
ATOM     27  C   UNL     1      -3.094   1.316   0.000  1.00  0.00    -0.011 A 
ATOM     28  C   UNL     1      -3.266   2.806   0.000  1.00  0.00     0.009 A 
ATOM     29  C   UNL     1      -4.298   0.421   0.000  1.00  0.00     0.009 A 
ATOM     30  C   UNL     1      -4.643   3.401   0.000  1.00  0.00     0.001 A 
ATOM     31  C   UNL     1      -5.674   1.016   0.000  1.00  0.00     0.001 A 
ATOM     32  C   UNL     1      -5.847   2.506   0.000  1.00  0.00     0.000 A 
ENDBRANCH  13  27
TORSDOF 3
