REMARK SMILES COc1c2c(cc3ccc(=O)oc13)C[C@@H](C(C)(C)O)O2
REMARK SMILES IDX 3 1 4 2 20 3 15 4 14 5 5 6 6 7 7 8 13 9 12 10 10 11 11 12
REMARK SMILES IDX 9 13 8 14 2 15 1 16 16 17 17 18 18 19 19 20
REMARK H PARENT 19 21
ROOT
ATOM      1  C   UNL     1       0.757  -1.052   0.000  1.00  0.00     0.205 A 
ATOM      2  C   UNL     1      -0.577  -0.366   0.000  1.00  0.00     0.169 A 
ATOM      3  O   UNL     1      -1.979  -0.899   0.000  1.00  0.00    -0.483 OA
ATOM      4  C   UNL     1      -2.919   0.270   0.000  1.00  0.00     0.209 C 
ATOM      5  C   UNL     1      -2.098   1.525   0.000  1.00  0.00     0.087 C 
ATOM      6  C   UNL     1      -0.650   1.132   0.000  1.00  0.00     0.003 A 
ATOM      7  C   UNL     1       0.610   1.945   0.000  1.00  0.00     0.020 A 
ATOM      8  C   UNL     1       1.945   1.260   0.000  1.00  0.00     0.022 A 
ATOM      9  C   UNL     1       2.018  -0.239   0.000  1.00  0.00     0.184 A 
ATOM     10  O   UNL     1       3.353  -0.924   0.000  1.00  0.00    -0.419 OA
ATOM     11  C   UNL     1       4.613  -0.111   0.000  1.00  0.00     0.336 A 
ATOM     12  O   UNL     1       5.947  -0.797   0.000  1.00  0.00    -0.246 OA
ATOM     13  C   UNL     1       4.540   1.387   0.000  1.00  0.00     0.094 A 
ATOM     14  C   UNL     1       3.205   2.072   0.000  1.00  0.00     0.019 A 
ENDROOT
BRANCH   1  15
ATOM     15  O   UNL     1       0.831  -2.550   0.000  1.00  0.00    -0.490 OA
ATOM     16  C   UNL     1      -0.429  -3.363   0.000  1.00  0.00     0.278 C 
ENDBRANCH   1  15
BRANCH   4  17
ATOM     17  C   UNL     1      -4.417   0.196   0.000  1.00  0.00     0.096 C 
ATOM     18  C   UNL     1      -4.344  -1.302   0.000  1.00  0.00     0.046 C 
ATOM     19  C   UNL     1      -4.491   1.694   0.000  1.00  0.00     0.046 C 
BRANCH  17  20
ATOM     20  O   UNL     1      -5.915   0.122   0.000  1.00  0.00    -0.387 OA
ATOM     21  H   UNL     1       0.000   0.000   0.000  1.00  0.00     0.211 HD
ENDBRANCH  17  20
ENDBRANCH   4  17
TORSDOF 3
