REMARK SMILES C=CC1C(CC2=NCCc3c2[nH]c2ccccc32)C(C(=O)O)=CO[C@H]1O[C@@H]1O[C@H](CO)[C@@H](O)[C@H](O)[C@H]1O
REMARK SMILES IDX 26 1 25 2 3 3 4 4 19 5 24 6 23 7 2 8 1 9 5 10 6 11 7 12
REMARK SMILES IDX 11 13 8 14 10 15 12 16 9 17 18 18 13 19 17 20 14 21 16 22
REMARK SMILES IDX 15 23 20 25 21 26 22 27 27 29 28 30 36 31 29 32 34 33 32 34
REMARK SMILES IDX 37 35 30 37 31 38 35 40 33 42
REMARK H PARENT 12 24 22 28 37 36 31 39 35 41 33 43
ROOT
ATOM      1  O   UNL     1      -2.682   0.857   0.000  1.00  0.00    -0.310 OA
ENDROOT
BRANCH   1   2
ATOM      2  C   UNL     1      -1.820  -0.370   0.000  1.00  0.00     0.316 C 
ATOM      3  C   UNL     1      -0.326  -0.236   0.000  1.00  0.00     0.089 C 
ATOM      4  C   UNL     1       0.537  -1.464   0.000  1.00  0.00     0.049 C 
ATOM      5  C   UNL     1      -0.095  -2.824   0.000  1.00  0.00     0.076 C 
ATOM      6  O   UNL     1      -2.451  -1.730   0.000  1.00  0.00    -0.471 OA
ATOM      7  C   UNL     1      -1.589  -2.958   0.000  1.00  0.00     0.202 C 
BRANCH   3   8
ATOM      8  C   UNL     1       0.306   1.124   0.000  1.00  0.00    -0.024 C 
ATOM      9  C   UNL     1      -0.557   2.351   0.000  1.00  0.00     0.004 C 
ENDBRANCH   3   8
BRANCH   4  10
ATOM     10  C   UNL     1       2.031  -1.330   0.000  1.00  0.00     0.067 C 
BRANCH  10  11
ATOM     11  C   UNL     1       2.663   0.030   0.000  1.00  0.00     0.059 C 
ATOM     12  N   UNL     1       1.800   1.258   0.000  1.00  0.00    -0.287 NA
ATOM     13  C   UNL     1       4.157   0.164   0.000  1.00  0.00     0.064 A 
ATOM     14  C   UNL     1       2.432   2.618   0.000  1.00  0.00     0.147 C 
ATOM     15  C   UNL     1       4.788   1.524   0.000  1.00  0.00    -0.011 A 
ATOM     16  N   UNL     1       5.255  -0.858   0.000  1.00  0.00    -0.353 N 
ATOM     17  C   UNL     1       3.926   2.751   0.000  1.00  0.00     0.062 C 
ATOM     18  C   UNL     1       6.277   1.344   0.000  1.00  0.00     0.003 A 
ATOM     19  C   UNL     1       6.566  -0.128   0.000  1.00  0.00     0.046 A 
ATOM     20  C   UNL     1       7.408   2.330   0.000  1.00  0.00     0.010 A 
ATOM     21  C   UNL     1       7.985  -0.614   0.000  1.00  0.00     0.027 A 
ATOM     22  C   UNL     1       8.827   1.844   0.000  1.00  0.00     0.001 A 
ATOM     23  C   UNL     1       9.116   0.372   0.000  1.00  0.00     0.002 A 
ATOM     24  H   UNL     1       0.000   0.000   0.000  1.00  0.00     0.167 HD
ENDBRANCH  10  11
ENDBRANCH   4  10
BRANCH   5  25
ATOM     25  C   UNL     1       0.768  -4.051   0.000  1.00  0.00     0.335 C 
ATOM     26  O   UNL     1       2.262  -3.918   0.000  1.00  0.00    -0.247 OA
BRANCH  25  27
ATOM     27  O   UNL     1       0.136  -5.412   0.000  1.00  0.00    -0.478 OA
ATOM     28  H   UNL     1       0.000   0.000   0.000  1.00  0.00     0.297 HD
ENDBRANCH  25  27
ENDBRANCH   5  25
ENDBRANCH   1   2
BRANCH   1  29
ATOM     29  C   UNL     1      -4.176   0.724   0.000  1.00  0.00     0.286 C 
ATOM     30  O   UNL     1      -5.039   1.951   0.000  1.00  0.00    -0.341 OA
ATOM     31  C   UNL     1      -4.808  -0.636   0.000  1.00  0.00     0.202 C 
ATOM     32  C   UNL     1      -6.533   1.818   0.000  1.00  0.00     0.178 C 
ATOM     33  C   UNL     1      -6.302  -0.770   0.000  1.00  0.00     0.179 C 
ATOM     34  C   UNL     1      -7.164   0.457   0.000  1.00  0.00     0.177 C 
BRANCH  31  35
ATOM     35  O   UNL     1      -3.945  -1.864   0.000  1.00  0.00    -0.385 OA
ATOM     36  H   UNL     1       0.000   0.000   0.000  1.00  0.00     0.211 HD
ENDBRANCH  31  35
BRANCH  32  37
ATOM     37  C   UNL     1      -7.395   3.045   0.000  1.00  0.00     0.191 C 
BRANCH  37  38
ATOM     38  O   UNL     1      -6.764   4.406   0.000  1.00  0.00    -0.394 OA
ATOM     39  H   UNL     1       0.000   0.000   0.000  1.00  0.00     0.210 HD
ENDBRANCH  37  38
ENDBRANCH  32  37
BRANCH  33  40
ATOM     40  O   UNL     1      -6.933  -2.130   0.000  1.00  0.00    -0.387 OA
ATOM     41  H   UNL     1       0.000   0.000   0.000  1.00  0.00     0.211 HD
ENDBRANCH  33  40
BRANCH  34  42
ATOM     42  O   UNL     1      -8.659   0.324   0.000  1.00  0.00    -0.387 OA
ATOM     43  H   UNL     1       0.000   0.000   0.000  1.00  0.00     0.211 HD
ENDBRANCH  34  42
ENDBRANCH   1  29
TORSDOF 12
