REMARK SMILES COC(=O)[C@@]1(C)CCC[C@@]2(C)[C@H]1CC[C@H]1[C@@H](C)c3ccoc3C[C@@H]12
REMARK SMILES IDX 3 1 4 2 2 3 1 4 5 5 7 6 12 7 8 8 10 9 13 10 9 11 24 12 14 13
REMARK SMILES IDX 23 14 15 15 22 16 16 17 18 18 21 19 19 20 20 21 6 22 11 23
REMARK SMILES IDX 17 24
REMARK H PARENT
ROOT
ATOM      1  C   UNL     1       4.346   0.365   0.000  1.00  0.00     0.311 C 
ATOM      2  O   UNL     1       4.924   1.749   0.000  1.00  0.00    -0.252 OA
ENDROOT
BRANCH   1   3
ATOM      3  O   UNL     1       5.255  -0.828   0.000  1.00  0.00    -0.469 OA
ATOM      4  C   UNL     1       6.743  -0.636   0.000  1.00  0.00     0.282 C 
ENDBRANCH   1   3
BRANCH   1   5
ATOM      5  C   UNL     1       2.858   0.174   0.000  1.00  0.00     0.069 C 
ATOM      6  C   UNL     1       3.304  -1.258   0.000  1.00  0.00     0.019 C 
ATOM      7  C   UNL     1       1.394   0.503   0.000  1.00  0.00     0.012 C 
ATOM      8  C   UNL     1       2.288  -2.361   0.000  1.00  0.00     0.002 C 
ATOM      9  C   UNL     1       0.378  -0.600   0.000  1.00  0.00    -0.025 C 
ATOM     10  C   UNL     1       0.948   1.935   0.000  1.00  0.00     0.005 C 
ATOM     11  C   UNL     1       0.824  -2.032   0.000  1.00  0.00     0.007 C 
ATOM     12  C   UNL     1      -1.086  -0.271   0.000  1.00  0.00     0.006 C 
ATOM     13  C   UNL     1      -0.516   2.264   0.000  1.00  0.00     0.005 C 
ATOM     14  C   UNL     1      -2.103  -1.373   0.000  1.00  0.00     0.080 C 
ATOM     15  C   UNL     1      -1.532   1.161   0.000  1.00  0.00     0.000 C 
ATOM     16  C   UNL     1      -3.566  -1.044   0.000  1.00  0.00     0.107 A 
ATOM     17  C   UNL     1      -2.996   1.491   0.000  1.00  0.00     0.023 C 
ATOM     18  C   UNL     1      -4.013   0.388   0.000  1.00  0.00    -0.003 A 
ATOM     19  O   UNL     1      -4.790  -1.911   0.000  1.00  0.00    -0.469 OA
ATOM     20  C   UNL     1      -5.513   0.406   0.000  1.00  0.00     0.046 A 
ATOM     21  C   UNL     1      -5.993  -1.016   0.000  1.00  0.00     0.195 A 
ATOM     22  C   UNL     1       2.928   1.672   0.000  1.00  0.00     0.024 C 
ATOM     23  C   UNL     1      -0.639  -1.702   0.000  1.00  0.00     0.012 C 
ATOM     24  C   UNL     1      -3.443   2.922   0.000  1.00  0.00     0.013 C 
ENDBRANCH   1   5
TORSDOF 2
