REMARK SMILES Cc1ccc(C)c2cc(C(C)(C)O)c(O)cc12
REMARK SMILES IDX 1 1 2 2 3 3 4 4 5 5 6 6 7 7 8 8 9 9 14 10 16 11 17 12 15 13
REMARK SMILES IDX 10 15 11 16 12 17 13 18
REMARK H PARENT 15 14 13 19
ROOT
ATOM      1  C   UNL     1      -3.091  -2.647   0.000  1.00  0.00     0.045 C 
ATOM      2  C   UNL     1      -2.733  -1.190   0.000  1.00  0.00    -0.043 A 
ATOM      3  C   UNL     1      -3.815  -0.151   0.000  1.00  0.00     0.004 A 
ATOM      4  C   UNL     1      -3.456   1.305   0.000  1.00  0.00     0.004 A 
ATOM      5  C   UNL     1      -2.015   1.723   0.000  1.00  0.00    -0.043 A 
ATOM      6  C   UNL     1      -1.657   3.179   0.000  1.00  0.00     0.045 C 
ATOM      7  C   UNL     1      -0.933   0.684   0.000  1.00  0.00    -0.015 A 
ATOM      8  C   UNL     1       0.507   1.102   0.000  1.00  0.00     0.019 A 
ATOM      9  C   UNL     1       1.589   0.063   0.000  1.00  0.00     0.025 A 
ATOM     10  C   UNL     1       1.231  -1.393   0.000  1.00  0.00     0.122 A 
ATOM     11  C   UNL     1      -0.210  -1.811   0.000  1.00  0.00     0.055 A 
ATOM     12  C   UNL     1      -1.292  -0.772   0.000  1.00  0.00    -0.012 A 
ENDROOT
BRANCH  10  13
ATOM     13  O   UNL     1       2.313  -2.432   0.000  1.00  0.00    -0.508 OA
ATOM     14  H   UNL     1       0.000   0.000   0.000  1.00  0.00     0.293 HD
ENDBRANCH  10  13
BRANCH   9  15
ATOM     15  C   UNL     1       3.030   0.481   0.000  1.00  0.00     0.088 C 
ATOM     16  C   UNL     1       2.612   1.921   0.000  1.00  0.00     0.047 C 
ATOM     17  C   UNL     1       3.448  -0.960   0.000  1.00  0.00     0.047 C 
BRANCH  15  18
ATOM     18  O   UNL     1       4.471   0.898   0.000  1.00  0.00    -0.386 OA
ATOM     19  H   UNL     1       0.000   0.000   0.000  1.00  0.00     0.211 HD
ENDBRANCH  15  18
ENDBRANCH   9  15
TORSDOF 3
