REMARK SMILES COc1cc(O)c(-c2oc3cc(OC)c(OC)c(O)c3c(=O)c2OC)cc1O
REMARK SMILES IDX 8 1 23 2 21 3 22 4 20 5 18 6 15 7 12 8 11 9 10 10 9 11 7 12
REMARK SMILES IDX 3 13 4 14 27 15 5 16 26 17 2 18 1 19 28 20 6 22 24 24 25 25
REMARK SMILES IDX 19 26 13 28 14 29 16 30 17 31
REMARK H PARENT 28 21 6 23 19 27
ROOT
ATOM      1  C   UNL     1      -0.839  -0.139   0.000  1.00  0.00     0.184 A 
ATOM      2  C   UNL     1      -0.319  -1.546   0.000  1.00  0.00     0.211 A 
ATOM      3  C   UNL     1       1.159  -1.799   0.000  1.00  0.00     0.239 A 
ATOM      4  O   UNL     1       1.679  -3.206   0.000  1.00  0.00    -0.285 OA
ATOM      5  C   UNL     1       2.118  -0.645   0.000  1.00  0.00     0.115 A 
ATOM      6  C   UNL     1       3.596  -0.898   0.000  1.00  0.00     0.177 A 
ATOM      7  C   UNL     1       4.555   0.256   0.000  1.00  0.00     0.204 A 
ATOM      8  C   UNL     1       4.035   1.663   0.000  1.00  0.00     0.168 A 
ATOM      9  C   UNL     1       2.557   1.916   0.000  1.00  0.00     0.098 A 
ATOM     10  C   UNL     1       1.598   0.762   0.000  1.00  0.00     0.146 A 
ATOM     11  O   UNL     1       0.119   1.015   0.000  1.00  0.00    -0.451 OA
ENDROOT
BRANCH   1  12
ATOM     12  C   UNL     1      -2.317   0.115   0.000  1.00  0.00     0.067 A 
ATOM     13  C   UNL     1      -5.274   0.621   0.000  1.00  0.00     0.164 A 
ATOM     14  C   UNL     1      -4.316   1.775   0.000  1.00  0.00     0.097 A 
ATOM     15  C   UNL     1      -4.755  -0.786   0.000  1.00  0.00     0.158 A 
ATOM     16  C   UNL     1      -2.837   1.522   0.000  1.00  0.00     0.130 A 
ATOM     17  C   UNL     1      -3.276  -1.039   0.000  1.00  0.00     0.066 A 
BRANCH  13  18
ATOM     18  O   UNL     1      -6.753   0.874   0.000  1.00  0.00    -0.493 OA
ATOM     19  C   UNL     1      -7.273   2.281   0.000  1.00  0.00     0.278 C 
ENDBRANCH  13  18
BRANCH  15  20
ATOM     20  O   UNL     1      -5.713  -1.940   0.000  1.00  0.00    -0.504 OA
ATOM     21  H   UNL     1       0.000   0.000   0.000  1.00  0.00     0.293 HD
ENDBRANCH  15  20
BRANCH  16  22
ATOM     22  O   UNL     1      -1.879   2.675   0.000  1.00  0.00    -0.507 OA
ATOM     23  H   UNL     1       0.000   0.000   0.000  1.00  0.00     0.293 HD
ENDBRANCH  16  22
ENDBRANCH   1  12
BRANCH   2  24
ATOM     24  O   UNL     1      -1.278  -2.700   0.000  1.00  0.00    -0.490 OA
ATOM     25  C   UNL     1      -2.756  -2.446   0.000  1.00  0.00     0.278 C 
ENDBRANCH   2  24
BRANCH   6  26
ATOM     26  O   UNL     1       4.116  -2.305   0.000  1.00  0.00    -0.504 OA
ATOM     27  H   UNL     1       0.000   0.000   0.000  1.00  0.00     0.293 HD
ENDBRANCH   6  26
BRANCH   8  28
ATOM     28  O   UNL     1       4.994   2.816   0.000  1.00  0.00    -0.493 OA
ATOM     29  C   UNL     1       6.472   2.563   0.000  1.00  0.00     0.278 C 
ENDBRANCH   8  28
BRANCH   7  30
ATOM     30  O   UNL     1       6.033   0.002   0.000  1.00  0.00    -0.490 OA
ATOM     31  C   UNL     1       6.553  -1.405   0.000  1.00  0.00     0.278 C 
ENDBRANCH   7  30
TORSDOF 8
