REMARK SMILES COc1cc2c(=O)oc3c(OC)c(O[C@@H]4O[C@H](COC(C)=O)[C@@H](O)[C@H](O)[C@H]4O)cc4c(=O)oc(c1O)c2c34
REMARK SMILES IDX 15 1 16 2 17 3 23 4 25 5 27 6 14 7 13 8 3 9 4 10 35 11 5 12
REMARK SMILES IDX 34 13 37 14 6 15 33 16 38 17 8 18 31 19 9 20 30 21 10 22
REMARK SMILES IDX 29 23 7 24 32 25 2 26 1 27 36 28 11 30 12 31 28 32 18 34
REMARK SMILES IDX 19 35 20 36 21 37 22 38 26 39 24 41
REMARK H PARENT 36 29 28 33 26 40 24 42
ROOT
ATOM      1  C   UNL     1       3.518   1.460   0.000  1.00  0.00     0.339 C 
ATOM      2  O   UNL     1       3.310  -0.025   0.000  1.00  0.00    -0.331 OA
ATOM      3  C   UNL     1       4.493  -0.948   0.000  1.00  0.00     0.191 C 
ATOM      4  C   UNL     1       5.883  -0.385   0.000  1.00  0.00     0.178 C 
ATOM      5  C   UNL     1       6.091   1.100   0.000  1.00  0.00     0.181 C 
ATOM      6  C   UNL     1       4.909   2.023   0.000  1.00  0.00     0.214 C 
ENDROOT
BRANCH   1   7
ATOM      7  O   UNL     1       2.336   2.383   0.000  1.00  0.00    -0.458 OA
BRANCH   7   8
ATOM      8  C   UNL     1       0.945   1.821   0.000  1.00  0.00     0.169 A 
ATOM      9  C   UNL     1      -6.007  -0.993   0.000  1.00  0.00     0.165 A 
ATOM     10  C   UNL     1      -5.799   0.493   0.000  1.00  0.00     0.067 A 
ATOM     11  C   UNL     1      -4.825  -1.915   0.000  1.00  0.00     0.202 A 
ATOM     12  C   UNL     1      -4.409   1.056   0.000  1.00  0.00     0.076 A 
ATOM     13  C   UNL     1      -3.434  -1.353   0.000  1.00  0.00     0.185 A 
ATOM     14  C   UNL     1      -3.226   0.133   0.000  1.00  0.00     0.048 A 
ATOM     15  C   UNL     1      -4.201   2.541   0.000  1.00  0.00     0.344 A 
ATOM     16  O   UNL     1      -2.252  -2.276   0.000  1.00  0.00    -0.418 OA
ATOM     17  C   UNL     1      -1.836   0.695   0.000  1.00  0.00     0.048 A 
ATOM     18  O   UNL     1      -2.810   3.104   0.000  1.00  0.00    -0.418 OA
ATOM     19  C   UNL     1      -0.861  -1.713   0.000  1.00  0.00     0.344 A 
ATOM     20  C   UNL     1      -1.628   2.181   0.000  1.00  0.00     0.185 A 
ATOM     21  C   UNL     1      -0.653  -0.227   0.000  1.00  0.00     0.076 A 
ATOM     22  C   UNL     1      -0.237   2.744   0.000  1.00  0.00     0.204 A 
ATOM     23  C   UNL     1       0.737   0.335   0.000  1.00  0.00     0.067 A 
ATOM     24  O   UNL     1      -5.383   3.464   0.000  1.00  0.00    -0.246 OA
ATOM     25  O   UNL     1       0.321  -2.636   0.000  1.00  0.00    -0.246 OA
BRANCH   9  26
ATOM     26  O   UNL     1      -7.398  -1.555   0.000  1.00  0.00    -0.493 OA
ATOM     27  C   UNL     1      -8.580  -0.632   0.000  1.00  0.00     0.278 C 
ENDBRANCH   9  26
BRANCH  11  28
ATOM     28  O   UNL     1      -5.033  -3.401   0.000  1.00  0.00    -0.502 OA
ATOM     29  H   UNL     1       0.000   0.000   0.000  1.00  0.00     0.293 HD
ENDBRANCH  11  28
BRANCH  22  30
ATOM     30  O   UNL     1      -0.029   4.229   0.000  1.00  0.00    -0.490 OA
ATOM     31  C   UNL     1       1.361   4.792   0.000  1.00  0.00     0.278 C 
ENDBRANCH  22  30
ENDBRANCH   7   8
ENDBRANCH   1   7
BRANCH   6  32
ATOM     32  O   UNL     1       5.117   3.509   0.000  1.00  0.00    -0.384 OA
ATOM     33  H   UNL     1       0.000   0.000   0.000  1.00  0.00     0.211 HD
ENDBRANCH   6  32
BRANCH   3  34
ATOM     34  C   UNL     1       4.285  -2.433   0.000  1.00  0.00     0.267 C 
BRANCH  34  35
ATOM     35  O   UNL     1       2.894  -2.996   0.000  1.00  0.00    -0.463 OA
BRANCH  35  36
ATOM     36  C   UNL     1       2.686  -4.481   0.000  1.00  0.00     0.302 C 
ATOM     37  C   UNL     1       1.296  -5.044   0.000  1.00  0.00     0.139 C 
ATOM     38  O   UNL     1       3.869  -5.404   0.000  1.00  0.00    -0.253 OA
ENDBRANCH  35  36
ENDBRANCH  34  35
ENDBRANCH   3  34
BRANCH   5  39
ATOM     39  O   UNL     1       7.482   1.663   0.000  1.00  0.00    -0.387 OA
ATOM     40  H   UNL     1       0.000   0.000   0.000  1.00  0.00     0.211 HD
ENDBRANCH   5  39
BRANCH   4  41
ATOM     41  O   UNL     1       7.066  -1.308   0.000  1.00  0.00    -0.387 OA
ATOM     42  H   UNL     1       0.000   0.000   0.000  1.00  0.00     0.211 HD
ENDBRANCH   4  41
TORSDOF 11
