REMARK SMILES CCOc1cc(-c2oc3cc(OC)c(OC)c(OC)c3c(=O)c2OC)c(OCC)cc1OC
REMARK SMILES IDX 4 1 5 2 6 3 26 4 30 5 31 6 3 7 2 8 1 9 32 10 33 11 7 12
REMARK SMILES IDX 23 13 8 14 21 15 9 16 20 17 10 18 17 19 11 20 14 21 22 22
REMARK SMILES IDX 24 23 25 24 18 25 19 26 12 27 13 28 15 29 16 30 27 31 28 32
REMARK SMILES IDX 29 33
REMARK H PARENT
ROOT
ATOM      1  C   UNL     1      -4.486  -0.608   0.000  1.00  0.00     0.162 A 
ATOM      2  C   UNL     1      -3.017  -0.909   0.000  1.00  0.00     0.066 A 
ATOM      3  C   UNL     1      -2.021   0.213   0.000  1.00  0.00     0.067 A 
ATOM      4  C   UNL     1      -2.495   1.636   0.000  1.00  0.00     0.134 A 
ATOM      5  C   UNL     1      -3.965   1.937   0.000  1.00  0.00     0.097 A 
ATOM      6  C   UNL     1      -4.960   0.815   0.000  1.00  0.00     0.164 A 
ENDROOT
BRANCH   1   7
ATOM      7  O   UNL     1      -5.481  -1.730   0.000  1.00  0.00    -0.490 OA
BRANCH   7   8
ATOM      8  C   UNL     1      -5.007  -3.153   0.000  1.00  0.00     0.226 C 
ATOM      9  C   UNL     1      -6.003  -4.275   0.000  1.00  0.00     0.049 C 
ENDBRANCH   7   8
ENDBRANCH   1   7
BRANCH   6  10
ATOM     10  O   UNL     1      -6.429   1.116   0.000  1.00  0.00    -0.493 OA
ATOM     11  C   UNL     1      -6.904   2.539   0.000  1.00  0.00     0.278 C 
ENDBRANCH   6  10
BRANCH   3  12
ATOM     12  C   UNL     1      -0.552  -0.088   0.000  1.00  0.00     0.184 A 
ATOM     13  C   UNL     1      -0.078  -1.511   0.000  1.00  0.00     0.211 A 
ATOM     14  O   UNL     1       0.444   1.034   0.000  1.00  0.00    -0.451 OA
ATOM     15  C   UNL     1       1.392  -1.812   0.000  1.00  0.00     0.239 A 
ATOM     16  C   UNL     1       1.913   0.733   0.000  1.00  0.00     0.146 A 
ATOM     17  C   UNL     1       2.387  -0.690   0.000  1.00  0.00     0.115 A 
ATOM     18  C   UNL     1       2.909   1.855   0.000  1.00  0.00     0.098 A 
ATOM     19  C   UNL     1       3.857  -0.991   0.000  1.00  0.00     0.179 A 
ATOM     20  C   UNL     1       4.378   1.554   0.000  1.00  0.00     0.168 A 
ATOM     21  C   UNL     1       4.852   0.131   0.000  1.00  0.00     0.204 A 
ATOM     22  O   UNL     1       1.866  -3.235   0.000  1.00  0.00    -0.285 OA
BRANCH  13  23
ATOM     23  O   UNL     1      -1.073  -2.633   0.000  1.00  0.00    -0.490 OA
ATOM     24  C   UNL     1      -2.542  -2.332   0.000  1.00  0.00     0.278 C 
ENDBRANCH  13  23
BRANCH  19  25
ATOM     25  O   UNL     1       4.331  -2.414   0.000  1.00  0.00    -0.492 OA
ATOM     26  C   UNL     1       5.800  -2.715   0.000  1.00  0.00     0.278 C 
ENDBRANCH  19  25
BRANCH  20  27
ATOM     27  O   UNL     1       5.374   2.676   0.000  1.00  0.00    -0.493 OA
ATOM     28  C   UNL     1       6.843   2.375   0.000  1.00  0.00     0.278 C 
ENDBRANCH  20  27
BRANCH  21  29
ATOM     29  O   UNL     1       6.322  -0.170   0.000  1.00  0.00    -0.490 OA
ATOM     30  C   UNL     1       6.796  -1.593   0.000  1.00  0.00     0.278 C 
ENDBRANCH  21  29
ENDBRANCH   3  12
BRANCH   4  31
ATOM     31  O   UNL     1      -1.500   2.758   0.000  1.00  0.00    -0.493 OA
BRANCH  31  32
ATOM     32  C   UNL     1      -1.974   4.181   0.000  1.00  0.00     0.226 C 
ATOM     33  C   UNL     1      -0.978   5.304   0.000  1.00  0.00     0.049 C 
ENDBRANCH  31  32
ENDBRANCH   4  31
TORSDOF 10
