REMARK SMILES C[C@H](C(O)/C=C/C(C)(C)O)[C@H]1CC[C@@]2(C)C3CCC4C(C)(C)C(=O)CC[C@@]45C[C@@]35CC[C@]12C
REMARK SMILES IDX 5 1 3 2 2 3 1 4 11 5 12 6 32 7 13 8 31 9 14 10 30 11 16 12
REMARK SMILES IDX 29 13 17 14 28 15 27 16 18 17 26 18 19 19 25 20 20 21 23 22
REMARK SMILES IDX 33 23 15 24 21 25 22 26 24 27 4 28 6 30 7 31 8 32 9 33 10 34
REMARK H PARENT 4 29 10 35
ROOT
ATOM      1  C   UNL     1      -5.301  -0.153   0.000  1.00  0.00     0.003 C 
ENDROOT
BRANCH   1   2
ATOM      2  C   UNL     1      -3.857   0.255   0.000  1.00  0.00     0.140 C 
BRANCH   2   3
ATOM      3  C   UNL     1      -3.489   1.709   0.000  1.00  0.00     0.022 C 
ATOM      4  C   UNL     1      -4.564   2.755   0.000  1.00  0.00     0.011 C 
BRANCH   3   5
ATOM      5  C   UNL     1      -2.046   2.117   0.000  1.00  0.00     0.001 C 
ATOM      6  C   UNL     1      -1.528   3.525   0.000  1.00  0.00     0.005 C 
ATOM      7  C   UNL     1      -0.867   1.189   0.000  1.00  0.00    -0.024 C 
ATOM      8  C   UNL     1      -0.029   3.467   0.000  1.00  0.00     0.008 C 
ATOM      9  C   UNL     1      -0.768  -0.308   0.000  1.00  0.00     0.008 C 
ATOM     10  C   UNL     1       0.380   2.023   0.000  1.00  0.00    -0.024 C 
ATOM     11  C   UNL     1       0.578  -0.970   0.000  1.00  0.00     0.008 C 
ATOM     12  C   UNL     1       1.725   1.361   0.000  1.00  0.00     0.002 C 
ATOM     13  C   UNL     1       1.824  -0.136   0.000  1.00  0.00    -0.020 C 
ATOM     14  C   UNL     1       2.972   2.195   0.000  1.00  0.00     0.005 C 
ATOM     15  C   UNL     1       1.923  -1.633   0.000  1.00  0.00     0.016 C 
ATOM     16  C   UNL     1       3.170  -0.799   0.000  1.00  0.00    -0.019 C 
ATOM     17  C   UNL     1       4.318   1.532   0.000  1.00  0.00     0.005 C 
ATOM     18  C   UNL     1       3.269  -2.295   0.000  1.00  0.00     0.016 C 
ATOM     19  C   UNL     1       4.417   0.035   0.000  1.00  0.00     0.009 C 
ATOM     20  C   UNL     1       4.615  -2.958   0.000  1.00  0.00     0.077 C 
ATOM     21  C   UNL     1       5.762  -0.627   0.000  1.00  0.00     0.027 C 
ATOM     22  C   UNL     1       5.862  -2.124   0.000  1.00  0.00     0.138 C 
ATOM     23  C   UNL     1      -2.194   0.490   0.000  1.00  0.00     0.012 C 
ATOM     24  C   UNL     1       1.532   2.983   0.000  1.00  0.00     0.012 C 
ATOM     25  C   UNL     1       7.254  -0.789   0.000  1.00  0.00     0.020 C 
ATOM     26  C   UNL     1       6.181   0.813   0.000  1.00  0.00     0.020 C 
ATOM     27  O   UNL     1       7.207  -2.786   0.000  1.00  0.00    -0.299 OA
ENDBRANCH   3   5
ENDBRANCH   2   3
BRANCH   2  28
ATOM     28  O   UNL     1      -2.782  -0.791   0.000  1.00  0.00    -0.389 OA
ATOM     29  H   UNL     1       0.000   0.000   0.000  1.00  0.00     0.211 HD
ENDBRANCH   2  28
ENDBRANCH   1   2
BRANCH   1  30
ATOM     30  C   UNL     1      -5.669  -1.607   0.000  1.00  0.00     0.005 C 
BRANCH  30  31
ATOM     31  C   UNL     1      -7.113  -2.016   0.000  1.00  0.00     0.077 C 
ATOM     32  C   UNL     1      -7.521  -0.572   0.000  1.00  0.00     0.046 C 
ATOM     33  C   UNL     1      -6.705  -3.459   0.000  1.00  0.00     0.046 C 
BRANCH  31  34
ATOM     34  O   UNL     1      -8.556  -2.424   0.000  1.00  0.00    -0.386 OA
ATOM     35  H   UNL     1       0.000   0.000   0.000  1.00  0.00     0.211 HD
ENDBRANCH  31  34
ENDBRANCH  30  31
ENDBRANCH   1  30
TORSDOF 7
