REMARK SMILES COc1ccc(-c2coc3cc(O)cc(O)c3c2=O)c(O)c1
REMARK SMILES IDX 7 1 8 2 9 3 10 4 11 5 12 6 14 7 15 8 17 9 18 10 19 11 6 12
REMARK SMILES IDX 3 13 4 14 22 15 5 16 20 17 2 18 1 19 21 20 16 22 13 24
REMARK H PARENT 21 21 16 23 13 25
ROOT
ATOM      1  C   UNL     1      -0.224  -0.563   0.000  1.00  0.00     0.069 A 
ATOM      2  C   UNL     1       0.323  -1.960   0.000  1.00  0.00     0.208 A 
ATOM      3  O   UNL     1       1.806  -2.186   0.000  1.00  0.00    -0.463 OA
ATOM      4  C   UNL     1       2.742  -1.014   0.000  1.00  0.00     0.145 A 
ATOM      5  C   UNL     1       4.225  -1.240   0.000  1.00  0.00     0.094 A 
ATOM      6  C   UNL     1       5.162  -0.068   0.000  1.00  0.00     0.123 A 
ATOM      7  C   UNL     1       4.616   1.329   0.000  1.00  0.00     0.093 A 
ATOM      8  C   UNL     1       3.133   1.554   0.000  1.00  0.00     0.134 A 
ATOM      9  C   UNL     1       2.196   0.383   0.000  1.00  0.00     0.107 A 
ATOM     10  C   UNL     1       0.713   0.608   0.000  1.00  0.00     0.204 A 
ATOM     11  O   UNL     1       0.167   2.005   0.000  1.00  0.00    -0.288 OA
ENDROOT
BRANCH   1  12
ATOM     12  C   UNL     1      -1.706  -0.338   0.000  1.00  0.00     0.031 A 
ATOM     13  C   UNL     1      -4.672   0.113   0.000  1.00  0.00     0.122 A 
ATOM     14  C   UNL     1      -3.736   1.285   0.000  1.00  0.00     0.047 A 
ATOM     15  C   UNL     1      -4.126  -1.284   0.000  1.00  0.00     0.093 A 
ATOM     16  C   UNL     1      -2.253   1.059   0.000  1.00  0.00     0.016 A 
ATOM     17  C   UNL     1      -2.643  -1.509   0.000  1.00  0.00     0.127 A 
BRANCH  13  18
ATOM     18  O   UNL     1      -6.155   0.339   0.000  1.00  0.00    -0.497 OA
ATOM     19  C   UNL     1      -6.702   1.736   0.000  1.00  0.00     0.278 C 
ENDBRANCH  13  18
BRANCH  17  20
ATOM     20  O   UNL     1      -2.097  -2.906   0.000  1.00  0.00    -0.507 OA
ATOM     21  H   UNL     1       0.000   0.000   0.000  1.00  0.00     0.293 HD
ENDBRANCH  17  20
ENDBRANCH   1  12
BRANCH   8  22
ATOM     22  O   UNL     1       2.587   2.951   0.000  1.00  0.00    -0.507 OA
ATOM     23  H   UNL     1       0.000   0.000   0.000  1.00  0.00     0.293 HD
ENDBRANCH   8  22
BRANCH   6  24
ATOM     24  O   UNL     1       6.645  -0.294   0.000  1.00  0.00    -0.508 OA
ATOM     25  H   UNL     1       0.000   0.000   0.000  1.00  0.00     0.293 HD
ENDBRANCH   6  24
TORSDOF 5
