REMARK SMILES CCCCCCCCC=CCCCCCCCC(=O)OCC
REMARK SMILES IDX 11 1 10 2 9 3 8 4 7 5 6 6 5 7 4 8 3 9 2 10 1 11 12 12 13 13
REMARK SMILES IDX 14 14 15 15 16 16 17 17 18 18 19 19 20 20 21 21 22 22
REMARK H PARENT
ROOT
ATOM      1  C   UNL     1      -0.419  -0.438   0.000  1.00  0.00     0.027 C 
ENDROOT
BRANCH   1   2
ATOM      2  C   UNL     1      -1.709   0.327   0.000  1.00  0.00    -0.031 C 
BRANCH   2   3
ATOM      3  C   UNL     1      -3.017  -0.407   0.000  1.00  0.00    -0.031 C 
BRANCH   3   4
ATOM      4  C   UNL     1      -4.306   0.358   0.000  1.00  0.00     0.027 C 
BRANCH   4   5
ATOM      5  C   UNL     1      -5.614  -0.376   0.000  1.00  0.00     0.004 C 
BRANCH   5   6
ATOM      6  C   UNL     1      -6.904   0.390   0.000  1.00  0.00     0.000 C 
BRANCH   6   7
ATOM      7  C   UNL     1      -8.212  -0.345   0.000  1.00  0.00     0.000 C 
BRANCH   7   8
ATOM      8  C   UNL     1      -9.502   0.421   0.000  1.00  0.00    -0.000 C 
BRANCH   8   9
ATOM      9  C   UNL     1     -10.810  -0.314   0.000  1.00  0.00    -0.000 C 
BRANCH   9  10
ATOM     10  C   UNL     1     -12.100   0.452   0.000  1.00  0.00    -0.003 C 
ATOM     11  C   UNL     1     -13.408  -0.283   0.000  1.00  0.00     0.004 C 
ENDBRANCH   9  10
ENDBRANCH   8   9
ENDBRANCH   7   8
ENDBRANCH   6   7
ENDBRANCH   5   6
ENDBRANCH   4   5
ENDBRANCH   3   4
ENDBRANCH   2   3
ENDBRANCH   1   2
BRANCH   1  12
ATOM     12  C   UNL     1       0.889   0.296   0.000  1.00  0.00     0.004 C 
BRANCH  12  13
ATOM     13  C   UNL     1       2.179  -0.469   0.000  1.00  0.00     0.000 C 
BRANCH  13  14
ATOM     14  C   UNL     1       3.487   0.265   0.000  1.00  0.00     0.000 C 
BRANCH  14  15
ATOM     15  C   UNL     1       4.777  -0.500   0.000  1.00  0.00     0.001 C 
BRANCH  15  16
ATOM     16  C   UNL     1       6.085   0.234   0.000  1.00  0.00     0.012 C 
BRANCH  16  17
ATOM     17  C   UNL     1       7.375  -0.531   0.000  1.00  0.00     0.123 C 
BRANCH  17  18
ATOM     18  C   UNL     1       8.683   0.203   0.000  1.00  0.00     0.305 C 
ATOM     19  O   UNL     1       8.701   1.703   0.000  1.00  0.00    -0.252 OA
BRANCH  18  20
ATOM     20  O   UNL     1       9.973  -0.563   0.000  1.00  0.00    -0.466 OA
BRANCH  20  21
ATOM     21  C   UNL     1      11.281   0.172   0.000  1.00  0.00     0.229 C 
ATOM     22  C   UNL     1      12.571  -0.594   0.000  1.00  0.00     0.049 C 
ENDBRANCH  20  21
ENDBRANCH  18  20
ENDBRANCH  17  18
ENDBRANCH  16  17
ENDBRANCH  15  16
ENDBRANCH  14  15
ENDBRANCH  13  14
ENDBRANCH  12  13
ENDBRANCH   1  12
TORSDOF 18
