REMARK SMILES C[C@H]1[C@H](C)CC[C@]2(C(=O)O)CC[C@]3(C(=O)O)C(=CC[C@@H]4[C@@]5(C)CC[C@H](O[C@@H]6O[C@H](CO)[C@@H](O)[C@H](O)[C@H]6O)C(C)(C)[C@@H]5CC[C@]43C)[C@H]12
REMARK SMILES IDX 26 1 25 2 2 3 3 4 46 5 5 6 17 7 7 8 6 9 13 10 18 11 11 12
REMARK SMILES IDX 12 13 44 14 19 15 43 16 20 17 42 18 21 19 41 20 23 21 38 22
REMARK SMILES IDX 24 23 1 24 4 25 45 26 22 27 39 28 40 29 8 30 9 31 10 32
REMARK SMILES IDX 14 34 15 35 16 36 27 38 28 39 36 40 29 41 34 42 32 43 37 44
REMARK SMILES IDX 30 46 31 47 35 49 33 51
REMARK H PARENT 10 33 16 37 37 45 31 48 35 50 33 52
ROOT
ATOM      1  O   UNL     1       5.108   1.550   0.000  1.00  0.00    -0.346 OA
ENDROOT
BRANCH   1   2
ATOM      2  C   UNL     1       3.649   1.201   0.000  1.00  0.00     0.127 C 
ATOM      3  C   UNL     1      -5.532  -2.328   0.000  1.00  0.00    -0.003 C 
ATOM      4  C   UNL     1      -6.991  -2.676   0.000  1.00  0.00    -0.011 C 
ATOM      5  C   UNL     1      -5.104  -0.890   0.000  1.00  0.00     0.036 C 
ATOM      6  C   UNL     1      -8.022  -1.587   0.000  1.00  0.00     0.005 C 
ATOM      7  C   UNL     1      -3.645  -0.542   0.000  1.00  0.00    -0.052 C 
ATOM      8  C   UNL     1      -6.136   0.199   0.000  1.00  0.00     0.075 C 
ATOM      9  C   UNL     1      -7.595  -0.149   0.000  1.00  0.00     0.020 C 
ATOM     10  C   UNL     1      -3.218   0.896   0.000  1.00  0.00     0.095 C 
ATOM     11  C   UNL     1      -2.614  -1.631   0.000  1.00  0.00    -0.026 C 
ATOM     12  C   UNL     1      -5.708   1.637   0.000  1.00  0.00     0.021 C 
ATOM     13  C   UNL     1      -4.249   1.985   0.000  1.00  0.00     0.025 C 
ATOM     14  C   UNL     1      -1.759   1.245   0.000  1.00  0.00    -0.009 C 
ATOM     15  C   UNL     1      -1.155  -1.282   0.000  1.00  0.00     0.032 C 
ATOM     16  C   UNL     1      -1.331   2.682   0.000  1.00  0.00     0.009 C 
ATOM     17  C   UNL     1      -0.727   0.155   0.000  1.00  0.00     0.006 C 
ATOM     18  C   UNL     1       0.128   3.031   0.000  1.00  0.00     0.005 C 
ATOM     19  C   UNL     1       0.732   0.504   0.000  1.00  0.00    -0.025 C 
ATOM     20  C   UNL     1       1.159   1.942   0.000  1.00  0.00     0.003 C 
ATOM     21  C   UNL     1       1.763  -0.585   0.000  1.00  0.00     0.010 C 
ATOM     22  C   UNL     1       2.618   2.290   0.000  1.00  0.00    -0.006 C 
ATOM     23  C   UNL     1       3.222  -0.237   0.000  1.00  0.00     0.033 C 
ATOM     24  C   UNL     1      -4.501  -3.417   0.000  1.00  0.00     0.008 C 
ATOM     25  C   UNL     1      -7.418  -4.114   0.000  1.00  0.00     0.008 C 
ATOM     26  C   UNL     1      -2.790   2.334   0.000  1.00  0.00     0.013 C 
ATOM     27  C   UNL     1       0.304  -0.934   0.000  1.00  0.00     0.012 C 
ATOM     28  C   UNL     1       2.022   3.667   0.000  1.00  0.00     0.014 C 
ATOM     29  C   UNL     1       3.870   3.117   0.000  1.00  0.00     0.014 C 
BRANCH   8  30
ATOM     30  C   UNL     1      -7.167   1.288   0.000  1.00  0.00     0.310 C 
ATOM     31  O   UNL     1      -8.626   0.940   0.000  1.00  0.00    -0.252 OA
BRANCH  30  32
ATOM     32  O   UNL     1      -6.739   2.726   0.000  1.00  0.00    -0.481 OA
ATOM     33  H   UNL     1       0.000   0.000   0.000  1.00  0.00     0.296 HD
ENDBRANCH  30  32
ENDBRANCH   8  30
BRANCH  10  34
ATOM     34  C   UNL     1      -2.186  -0.193   0.000  1.00  0.00     0.314 C 
ATOM     35  O   UNL     1      -0.686  -0.208   0.000  1.00  0.00    -0.251 OA
BRANCH  34  36
ATOM     36  O   UNL     1      -2.222  -0.990   0.000  1.00  0.00    -0.481 OA
ATOM     37  H   UNL     1       0.000   0.000   0.000  1.00  0.00     0.296 HD
ENDBRANCH  34  36
ENDBRANCH  10  34
ENDBRANCH   1   2
BRANCH   1  38
ATOM     38  C   UNL     1       6.140   0.460   0.000  1.00  0.00     0.282 C 
ATOM     39  O   UNL     1       5.712  -0.977   0.000  1.00  0.00    -0.341 OA
ATOM     40  C   UNL     1       7.599   0.809   0.000  1.00  0.00     0.202 C 
ATOM     41  C   UNL     1       6.743  -2.067   0.000  1.00  0.00     0.178 C 
ATOM     42  C   UNL     1       8.630  -0.280   0.000  1.00  0.00     0.179 C 
ATOM     43  C   UNL     1       8.202  -1.718   0.000  1.00  0.00     0.177 C 
BRANCH  40  44
ATOM     44  O   UNL     1       8.026   2.247   0.000  1.00  0.00    -0.385 OA
ATOM     45  H   UNL     1       0.000   0.000   0.000  1.00  0.00     0.211 HD
ENDBRANCH  40  44
BRANCH  41  46
ATOM     46  C   UNL     1       6.316  -3.504   0.000  1.00  0.00     0.191 C 
BRANCH  46  47
ATOM     47  O   UNL     1       4.857  -3.853   0.000  1.00  0.00    -0.394 OA
ATOM     48  H   UNL     1       0.000   0.000   0.000  1.00  0.00     0.210 HD
ENDBRANCH  46  47
ENDBRANCH  41  46
BRANCH  42  49
ATOM     49  O   UNL     1      10.089   0.068   0.000  1.00  0.00    -0.387 OA
ATOM     50  H   UNL     1       0.000   0.000   0.000  1.00  0.00     0.211 HD
ENDBRANCH  42  49
BRANCH  43  51
ATOM     51  O   UNL     1       9.234  -2.807   0.000  1.00  0.00    -0.387 OA
ATOM     52  H   UNL     1       0.000   0.000   0.000  1.00  0.00     0.211 HD
ENDBRANCH  43  51
ENDBRANCH   1  38
TORSDOF 11
