REMARK SMILES CC(C)CNC(=O)C=CC=CCCc1ccc2c(c1)OCO2
REMARK SMILES IDX 9 1 8 2 6 3 5 4 7 6 4 7 2 8 1 9 3 10 10 11 11 12 12 13 13 14
REMARK SMILES IDX 14 15 15 16 19 17 16 18 18 19 17 20 20 21 22 22 21 23
REMARK H PARENT 5 5
ROOT
ATOM      1  C   UNL     1       2.589   0.637   0.000  1.00  0.00     0.005 C 
ENDROOT
BRANCH   1   2
ATOM      2  C   UNL     1       3.832  -0.203   0.000  1.00  0.00     0.071 C 
BRANCH   2   3
ATOM      3  C   UNL     1       5.181   0.453   0.000  1.00  0.00     0.243 C 
ATOM      4  N   UNL     1       6.423  -0.386   0.000  1.00  0.00    -0.352 N 
ATOM      5  H   UNL     1       0.000   0.000   0.000  1.00  0.00     0.163 HD
ATOM      6  O   UNL     1       5.286   1.950   0.000  1.00  0.00    -0.270 OA
BRANCH   4   7
ATOM      7  C   UNL     1       7.772   0.270   0.000  1.00  0.00     0.119 C 
BRANCH   7   8
ATOM      8  C   UNL     1       9.015  -0.570   0.000  1.00  0.00     0.002 C 
ATOM      9  C   UNL     1      10.364   0.086   0.000  1.00  0.00     0.009 C 
ATOM     10  C   UNL     1       8.909  -2.066   0.000  1.00  0.00     0.009 C 
ENDBRANCH   7   8
ENDBRANCH   4   7
ENDBRANCH   2   3
ENDBRANCH   1   2
BRANCH   1  11
ATOM     11  C   UNL     1       1.240  -0.019   0.000  1.00  0.00    -0.004 C 
BRANCH  11  12
ATOM     12  C   UNL     1      -0.003   0.820   0.000  1.00  0.00    -0.027 C 
BRANCH  12  13
ATOM     13  C   UNL     1      -1.351   0.164   0.000  1.00  0.00     0.032 C 
BRANCH  13  14
ATOM     14  C   UNL     1      -2.594   1.004   0.000  1.00  0.00     0.040 C 
BRANCH  14  15
ATOM     15  C   UNL     1      -3.943   0.347   0.000  1.00  0.00    -0.044 A 
ATOM     16  C   UNL     1      -4.049  -1.149   0.000  1.00  0.00     0.008 A 
ATOM     17  C   UNL     1      -5.186   1.187   0.000  1.00  0.00     0.054 A 
ATOM     18  C   UNL     1      -5.398  -1.805   0.000  1.00  0.00     0.051 A 
ATOM     19  C   UNL     1      -6.535   0.531   0.000  1.00  0.00     0.166 A 
ATOM     20  C   UNL     1      -6.641  -0.965   0.000  1.00  0.00     0.165 A 
ATOM     21  O   UNL     1      -7.925   1.094   0.000  1.00  0.00    -0.454 OA
ATOM     22  O   UNL     1      -8.096  -1.327   0.000  1.00  0.00    -0.454 OA
ATOM     23  C   UNL     1      -8.890  -0.054   0.000  1.00  0.00     0.468 C 
ENDBRANCH  14  15
ENDBRANCH  13  14
ENDBRANCH  12  13
ENDBRANCH  11  12
ENDBRANCH   1  11
TORSDOF 9
