REMARK SMILES C[C@@H]1Cc2ccc(O)c(O)c2C(=O)O1
REMARK SMILES IDX 1 1 2 2 3 3 4 4 5 5 6 6 7 7 9 8 11 9 12 10 13 11 14 12 10 13
REMARK SMILES IDX 8 15
REMARK H PARENT 10 14 8 16
ROOT
ATOM      1  C   UNL     1       4.288  -0.720   0.000  1.00  0.00     0.053 C 
ATOM      2  C   UNL     1       2.828  -0.377   0.000  1.00  0.00     0.178 C 
ATOM      3  C   UNL     1       1.801  -1.471   0.000  1.00  0.00     0.081 C 
ATOM      4  C   UNL     1       0.341  -1.128   0.000  1.00  0.00    -0.026 A 
ATOM      5  C   UNL     1      -0.686  -2.222   0.000  1.00  0.00     0.009 A 
ATOM      6  C   UNL     1      -2.147  -1.879   0.000  1.00  0.00     0.050 A 
ATOM      7  C   UNL     1      -2.580  -0.443   0.000  1.00  0.00     0.158 A 
ATOM      8  C   UNL     1      -1.553   0.650   0.000  1.00  0.00     0.172 A 
ATOM      9  C   UNL     1      -0.093   0.308   0.000  1.00  0.00     0.109 A 
ATOM     10  C   UNL     1       0.934   1.401   0.000  1.00  0.00     0.342 C 
ATOM     11  O   UNL     1       0.500   2.837   0.000  1.00  0.00    -0.246 OA
ATOM     12  O   UNL     1       2.394   1.059   0.000  1.00  0.00    -0.459 OA
ENDROOT
BRANCH   8  13
ATOM     13  O   UNL     1      -1.987   2.086   0.000  1.00  0.00    -0.504 OA
ATOM     14  H   UNL     1       0.000   0.000   0.000  1.00  0.00     0.293 HD
ENDBRANCH   8  13
BRANCH   7  15
ATOM     15  O   UNL     1      -4.040  -0.101   0.000  1.00  0.00    -0.504 OA
ATOM     16  H   UNL     1       0.000   0.000   0.000  1.00  0.00     0.293 HD
ENDBRANCH   7  15
TORSDOF 2
