REMARK SMILES COc1cc([C@H]2CC(=O)c3c(O)c(C)c(OCc4ccccc4)c(C)c3O2)ccc1OCc1ccccc1
REMARK SMILES IDX 6 1 7 2 8 3 9 4 10 5 11 6 13 7 14 8 15 9 24 10 25 11 26 12
REMARK SMILES IDX 27 13 5 14 3 15 4 16 30 17 29 18 28 19 2 20 1 21 31 22 32 23
REMARK SMILES IDX 33 24 34 25 38 26 35 27 37 28 36 29 12 30 16 32 17 33 18 34
REMARK SMILES IDX 19 35 23 36 20 37 22 38 21 39
REMARK H PARENT 12 31
ROOT
ATOM      1  C   UNL     1      -0.640  -1.225   0.000  1.00  0.00     0.211 C 
ATOM      2  C   UNL     1      -0.363  -2.699   0.000  1.00  0.00     0.131 C 
ATOM      3  C   UNL     1       1.052  -3.196   0.000  1.00  0.00     0.174 C 
ATOM      4  O   UNL     1       1.329  -4.670   0.000  1.00  0.00    -0.294 OA
ATOM      5  C   UNL     1       2.191  -2.219   0.000  1.00  0.00     0.102 A 
ATOM      6  C   UNL     1       3.606  -2.717   0.000  1.00  0.00     0.136 A 
ATOM      7  C   UNL     1       4.744  -1.740   0.000  1.00  0.00     0.034 A 
ATOM      8  C   UNL     1       6.159  -2.237   0.000  1.00  0.00     0.052 C 
ATOM      9  C   UNL     1       4.467  -0.266   0.000  1.00  0.00     0.133 A 
ATOM     10  C   UNL     1       3.052   0.232   0.000  1.00  0.00     0.034 A 
ATOM     11  C   UNL     1       2.775   1.706   0.000  1.00  0.00     0.052 C 
ATOM     12  C   UNL     1       1.914  -0.745   0.000  1.00  0.00     0.141 A 
ATOM     13  O   UNL     1       0.499  -0.248   0.000  1.00  0.00    -0.484 OA
ENDROOT
BRANCH   1  14
ATOM     14  C   UNL     1      -2.055  -0.727   0.000  1.00  0.00    -0.003 A 
ATOM     15  C   UNL     1      -3.747   1.244   0.000  1.00  0.00     0.161 A 
ATOM     16  C   UNL     1      -2.332   0.747   0.000  1.00  0.00     0.058 A 
ATOM     17  C   UNL     1      -4.885   0.268   0.000  1.00  0.00     0.161 A 
ATOM     18  C   UNL     1      -4.608  -1.207   0.000  1.00  0.00     0.051 A 
ATOM     19  C   UNL     1      -3.193  -1.704   0.000  1.00  0.00     0.011 A 
BRANCH  15  20
ATOM     20  O   UNL     1      -4.024   2.719   0.000  1.00  0.00    -0.493 OA
ATOM     21  C   UNL     1      -2.885   3.696   0.000  1.00  0.00     0.278 C 
ENDBRANCH  15  20
BRANCH  17  22
ATOM     22  O   UNL     1      -6.300   0.765   0.000  1.00  0.00    -0.485 OA
BRANCH  22  23
ATOM     23  C   UNL     1      -7.439  -0.212   0.000  1.00  0.00     0.265 C 
BRANCH  23  24
ATOM     24  C   UNL     1      -8.854   0.286   0.000  1.00  0.00    -0.011 A 
ATOM     25  C   UNL     1      -9.130   1.760   0.000  1.00  0.00     0.007 A 
ATOM     26  C   UNL     1      -9.992  -0.691   0.000  1.00  0.00     0.007 A 
ATOM     27  C   UNL     1     -10.546   2.257   0.000  1.00  0.00     0.000 A 
ATOM     28  C   UNL     1     -11.407  -0.194   0.000  1.00  0.00     0.000 A 
ATOM     29  C   UNL     1     -11.684   1.281   0.000  1.00  0.00     0.000 A 
ENDBRANCH  23  24
ENDBRANCH  22  23
ENDBRANCH  17  22
ENDBRANCH   1  14
BRANCH   6  30
ATOM     30  O   UNL     1       3.882  -4.191   0.000  1.00  0.00    -0.507 OA
ATOM     31  H   UNL     1       0.000   0.000   0.000  1.00  0.00     0.293 HD
ENDBRANCH   6  30
BRANCH   9  32
ATOM     32  O   UNL     1       5.606   0.711   0.000  1.00  0.00    -0.488 OA
BRANCH  32  33
ATOM     33  C   UNL     1       7.021   0.214   0.000  1.00  0.00     0.265 C 
BRANCH  33  34
ATOM     34  C   UNL     1       8.159   1.190   0.000  1.00  0.00    -0.011 A 
ATOM     35  C   UNL     1       9.574   0.693   0.000  1.00  0.00     0.007 A 
ATOM     36  C   UNL     1       7.882   2.665   0.000  1.00  0.00     0.007 A 
ATOM     37  C   UNL     1      10.713   1.670   0.000  1.00  0.00     0.000 A 
ATOM     38  C   UNL     1       9.021   3.642   0.000  1.00  0.00     0.000 A 
ATOM     39  C   UNL     1      10.436   3.144   0.000  1.00  0.00     0.000 A 
ENDBRANCH  33  34
ENDBRANCH  32  33
ENDBRANCH   9  32
TORSDOF 9
