REMARK SMILES O=C(O)C=Cc1ccc(O)c(O)c1
REMARK SMILES IDX 4 1 2 2 1 3 3 4 5 6 6 7 7 8 13 9 8 10 11 11 9 12 12 13 10 15
REMARK H PARENT 3 5 12 14 10 16
ROOT
ATOM      1  C   UNL     1      -2.465   0.442   0.000  1.00  0.00     0.094 C 
ENDROOT
BRANCH   1   2
ATOM      2  C   UNL     1      -3.908   0.033   0.000  1.00  0.00     0.328 C 
ATOM      3  O   UNL     1      -4.274  -1.422   0.000  1.00  0.00    -0.247 OA
BRANCH   2   4
ATOM      4  O   UNL     1      -4.984   1.077   0.000  1.00  0.00    -0.478 OA
ATOM      5  H   UNL     1       0.000   0.000   0.000  1.00  0.00     0.297 HD
ENDBRANCH   2   4
ENDBRANCH   1   2
BRANCH   1   6
ATOM      6  C   UNL     1      -1.388  -0.602   0.000  1.00  0.00     0.016 C 
BRANCH   6   7
ATOM      7  C   UNL     1       0.055  -0.192   0.000  1.00  0.00    -0.021 A 
ATOM      8  C   UNL     1       0.421   1.262   0.000  1.00  0.00     0.012 A 
ATOM      9  C   UNL     1       1.131  -1.237   0.000  1.00  0.00     0.058 A 
ATOM     10  C   UNL     1       1.864   1.672   0.000  1.00  0.00     0.051 A 
ATOM     11  C   UNL     1       2.574  -0.827   0.000  1.00  0.00     0.157 A 
ATOM     12  C   UNL     1       2.940   0.628   0.000  1.00  0.00     0.157 A 
BRANCH  11  13
ATOM     13  O   UNL     1       3.650  -1.871   0.000  1.00  0.00    -0.504 OA
ATOM     14  H   UNL     1       0.000   0.000   0.000  1.00  0.00     0.293 HD
ENDBRANCH  11  13
BRANCH  12  15
ATOM     15  O   UNL     1       4.383   1.038   0.000  1.00  0.00    -0.504 OA
ATOM     16  H   UNL     1       0.000   0.000   0.000  1.00  0.00     0.293 HD
ENDBRANCH  12  15
ENDBRANCH   6   7
ENDBRANCH   1   6
TORSDOF 6
