REMARK SMILES COc1cc2oc(-c3ccc(O)cc3)cc(=O)c2c(O)c1O[C@@H]1O[C@H](CO)[C@@H](O)[C@H](O)[C@H]1O
REMARK SMILES IDX 22 1 21 2 3 3 4 4 5 5 19 6 18 7 6 8 16 9 7 10 15 11 17 12
REMARK SMILES IDX 2 13 1 14 20 15 8 17 9 18 14 19 10 20 13 21 11 22 12 23
REMARK SMILES IDX 23 25 24 26 32 27 25 28 30 29 28 30 33 31 26 33 27 34 31 36
REMARK SMILES IDX 29 38
REMARK H PARENT 20 16 12 24 33 32 27 35 31 37 29 39
ROOT
ATOM      1  O   UNL     1      -2.598  -1.736   0.000  1.00  0.00    -0.454 OA
ENDROOT
BRANCH   1   2
ATOM      2  C   UNL     1      -1.216  -1.153   0.000  1.00  0.00     0.207 A 
ATOM      3  C   UNL     1      -1.029   0.335   0.000  1.00  0.00     0.168 A 
ATOM      4  C   UNL     1       0.353   0.918   0.000  1.00  0.00     0.098 A 
ATOM      5  C   UNL     1       1.549   0.012   0.000  1.00  0.00     0.146 A 
ATOM      6  C   UNL     1      -0.020  -2.059   0.000  1.00  0.00     0.177 A 
ATOM      7  C   UNL     1       1.362  -1.476   0.000  1.00  0.00     0.111 A 
ATOM      8  O   UNL     1       2.931   0.595   0.000  1.00  0.00    -0.456 OA
ATOM      9  C   UNL     1       2.558  -2.382   0.000  1.00  0.00     0.197 A 
ATOM     10  C   UNL     1       4.127  -0.311   0.000  1.00  0.00     0.138 A 
ATOM     11  C   UNL     1       3.940  -1.799   0.000  1.00  0.00     0.100 A 
ATOM     12  O   UNL     1       2.371  -3.870   0.000  1.00  0.00    -0.289 OA
BRANCH   3  13
ATOM     13  O   UNL     1      -2.225   1.241   0.000  1.00  0.00    -0.493 OA
ATOM     14  C   UNL     1      -2.038   2.729   0.000  1.00  0.00     0.278 C 
ENDBRANCH   3  13
BRANCH   6  15
ATOM     15  O   UNL     1      -0.206  -3.547   0.000  1.00  0.00    -0.504 OA
ATOM     16  H   UNL     1       0.000   0.000   0.000  1.00  0.00     0.293 HD
ENDBRANCH   6  15
BRANCH  10  17
ATOM     17  C   UNL     1       5.509   0.272   0.000  1.00  0.00     0.018 A 
ATOM     18  C   UNL     1       6.705  -0.634   0.000  1.00  0.00     0.016 A 
ATOM     19  C   UNL     1       5.695   1.760   0.000  1.00  0.00     0.016 A 
ATOM     20  C   UNL     1       8.087  -0.051   0.000  1.00  0.00     0.047 A 
ATOM     21  C   UNL     1       7.078   2.343   0.000  1.00  0.00     0.047 A 
ATOM     22  C   UNL     1       8.273   1.437   0.000  1.00  0.00     0.115 A 
BRANCH  22  23
ATOM     23  O   UNL     1       9.655   2.020   0.000  1.00  0.00    -0.508 OA
ATOM     24  H   UNL     1       0.000   0.000   0.000  1.00  0.00     0.293 HD
ENDBRANCH  22  23
ENDBRANCH  10  17
ENDBRANCH   1   2
BRANCH   1  25
ATOM     25  C   UNL     1      -3.794  -0.830   0.000  1.00  0.00     0.339 C 
ATOM     26  O   UNL     1      -3.607   0.658   0.000  1.00  0.00    -0.332 OA
ATOM     27  C   UNL     1      -5.176  -1.413   0.000  1.00  0.00     0.214 C 
ATOM     28  C   UNL     1      -4.803   1.564   0.000  1.00  0.00     0.179 C 
ATOM     29  C   UNL     1      -6.372  -0.507   0.000  1.00  0.00     0.180 C 
ATOM     30  C   UNL     1      -6.185   0.981   0.000  1.00  0.00     0.177 C 
BRANCH  27  31
ATOM     31  O   UNL     1      -5.362  -2.901   0.000  1.00  0.00    -0.384 OA
ATOM     32  H   UNL     1       0.000   0.000   0.000  1.00  0.00     0.211 HD
ENDBRANCH  27  31
BRANCH  28  33
ATOM     33  C   UNL     1      -4.616   3.052   0.000  1.00  0.00     0.191 C 
BRANCH  33  34
ATOM     34  O   UNL     1      -5.812   3.958   0.000  1.00  0.00    -0.394 OA
ATOM     35  H   UNL     1       0.000   0.000   0.000  1.00  0.00     0.210 HD
ENDBRANCH  33  34
ENDBRANCH  28  33
BRANCH  29  36
ATOM     36  O   UNL     1      -7.754  -1.090   0.000  1.00  0.00    -0.387 OA
ATOM     37  H   UNL     1       0.000   0.000   0.000  1.00  0.00     0.211 HD
ENDBRANCH  29  36
BRANCH  30  38
ATOM     38  O   UNL     1      -7.381   1.887   0.000  1.00  0.00    -0.387 OA
ATOM     39  H   UNL     1       0.000   0.000   0.000  1.00  0.00     0.211 HD
ENDBRANCH  30  38
ENDBRANCH   1  25
TORSDOF 11
