REMARK SMILES Cc1cc(O)c2c(c1)C(=O)c1cc(O)ccc1C2=O
REMARK SMILES IDX 1 1 2 2 3 3 4 4 6 5 18 6 19 7 17 8 16 9 15 10 13 11 12 12
REMARK SMILES IDX 11 13 9 14 10 15 7 16 8 17 5 18 14 20
REMARK H PARENT 5 19 14 21
ROOT
ATOM      1  C   UNL     1      -4.936   1.867   0.000  1.00  0.00     0.044 C 
ATOM      2  C   UNL     1      -3.695   1.024   0.000  1.00  0.00    -0.047 A 
ATOM      3  C   UNL     1      -3.805  -0.472   0.000  1.00  0.00     0.050 A 
ATOM      4  C   UNL     1      -2.565  -1.315   0.000  1.00  0.00     0.127 A 
ATOM      5  C   UNL     1      -1.214  -0.663   0.000  1.00  0.00     0.075 A 
ATOM      6  C   UNL     1       0.026  -1.506   0.000  1.00  0.00     0.198 C 
ATOM      7  O   UNL     1      -0.084  -3.002   0.000  1.00  0.00    -0.288 OA
ATOM      8  C   UNL     1       1.377  -0.853   0.000  1.00  0.00     0.034 A 
ATOM      9  C   UNL     1       2.617  -1.697   0.000  1.00  0.00     0.017 A 
ATOM     10  C   UNL     1       3.968  -1.044   0.000  1.00  0.00     0.047 A 
ATOM     11  C   UNL     1       4.078   0.452   0.000  1.00  0.00     0.116 A 
ATOM     12  C   UNL     1       2.837   1.295   0.000  1.00  0.00     0.059 A 
ATOM     13  C   UNL     1       1.487   0.643   0.000  1.00  0.00     0.037 A 
ATOM     14  C   UNL     1       0.246   1.486   0.000  1.00  0.00     0.194 C 
ATOM     15  O   UNL     1       0.356   2.982   0.000  1.00  0.00    -0.289 OA
ATOM     16  C   UNL     1      -1.104   0.833   0.000  1.00  0.00     0.038 A 
ATOM     17  C   UNL     1      -2.345   1.677   0.000  1.00  0.00     0.016 A 
ENDROOT
BRANCH   4  18
ATOM     18  O   UNL     1      -2.675  -2.811   0.000  1.00  0.00    -0.507 OA
ATOM     19  H   UNL     1       0.000   0.000   0.000  1.00  0.00     0.293 HD
ENDBRANCH   4  18
BRANCH  11  20
ATOM     20  O   UNL     1       5.429   1.105   0.000  1.00  0.00    -0.508 OA
ATOM     21  H   UNL     1       0.000   0.000   0.000  1.00  0.00     0.293 HD
ENDBRANCH  11  20
TORSDOF 2
