REMARK SMILES CCC1(O)CCC(=O)CC1
REMARK SMILES IDX 3 1 5 2 6 3 7 4 8 5 9 6 10 7 2 8 1 9 4 10
REMARK H PARENT 4 11
ROOT
ATOM      1  C   UNL     1       0.861  -0.085   0.000  1.00  0.00     0.065 C 
ATOM      2  C   UNL     1       0.052  -1.348   0.000  1.00  0.00     0.043 C 
ATOM      3  C   UNL     1      -1.446  -1.279   0.000  1.00  0.00     0.078 C 
ATOM      4  C   UNL     1      -2.135   0.053   0.000  1.00  0.00     0.133 C 
ATOM      5  O   UNL     1      -3.634   0.122   0.000  1.00  0.00    -0.300 OA
ATOM      6  C   UNL     1      -1.327   1.316   0.000  1.00  0.00     0.078 C 
ATOM      7  C   UNL     1       0.172   1.247   0.000  1.00  0.00     0.043 C 
ENDROOT
BRANCH   1   8
ATOM      8  C   UNL     1       2.054   0.825   0.000  1.00  0.00     0.032 C 
ATOM      9  C   UNL     1       3.438   0.248   0.000  1.00  0.00     0.007 C 
ENDBRANCH   1   8
BRANCH   1  10
ATOM     10  O   UNL     1       1.965  -1.101   0.000  1.00  0.00    -0.390 OA
ATOM     11  H   UNL     1       0.000   0.000   0.000  1.00  0.00     0.211 HD
ENDBRANCH   1  10
TORSDOF 2
