REMARK SMILES COc1c(O)cc(CCC(=O)c2c(O)cc(O)c(CC=C(C)C)c2O)cc1CC=C(C)C
REMARK SMILES IDX 9 1 8 2 7 3 3 4 4 5 27 6 6 7 26 8 2 9 1 10 5 11 28 13 29 14
REMARK SMILES IDX 30 15 31 16 32 17 10 18 11 19 12 20 13 21 24 22 15 23 18 24
REMARK SMILES IDX 16 25 14 26 25 28 19 30 20 31 21 32 22 33 23 34 17 35
REMARK H PARENT 5 12 14 27 25 29 17 36
ROOT
ATOM      1  C   UNL     1       0.128   0.803   0.000  1.00  0.00     0.086 C 
ENDROOT
BRANCH   1   2
ATOM      2  C   UNL     1      -0.824   1.962   0.000  1.00  0.00     0.044 C 
BRANCH   2   3
ATOM      3  C   UNL     1      -2.304   1.717   0.000  1.00  0.00    -0.043 A 
ATOM      4  C   UNL     1      -5.264   1.226   0.000  1.00  0.00     0.163 A 
ATOM      5  C   UNL     1      -4.736   2.630   0.000  1.00  0.00     0.158 A 
ATOM      6  C   UNL     1      -4.311   0.067   0.000  1.00  0.00     0.002 A 
ATOM      7  C   UNL     1      -3.256   2.876   0.000  1.00  0.00     0.054 A 
ATOM      8  C   UNL     1      -2.831   0.312   0.000  1.00  0.00     0.011 A 
BRANCH   4   9
ATOM      9  O   UNL     1      -6.743   0.981   0.000  1.00  0.00    -0.493 OA
ATOM     10  C   UNL     1      -7.696   2.139   0.000  1.00  0.00     0.278 C 
ENDBRANCH   4   9
BRANCH   5  11
ATOM     11  O   UNL     1      -5.689   3.789   0.000  1.00  0.00    -0.504 OA
ATOM     12  H   UNL     1       0.000   0.000   0.000  1.00  0.00     0.293 HD
ENDBRANCH   5  11
BRANCH   6  13
ATOM     13  C   UNL     1      -4.839  -1.337   0.000  1.00  0.00     0.067 C 
BRANCH  13  14
ATOM     14  C   UNL     1      -6.318  -1.583   0.000  1.00  0.00    -0.023 C 
BRANCH  14  15
ATOM     15  C   UNL     1      -6.846  -2.987   0.000  1.00  0.00    -0.080 C 
ATOM     16  C   UNL     1      -8.326  -3.232   0.000  1.00  0.00     0.039 C 
ATOM     17  C   UNL     1      -5.894  -4.146   0.000  1.00  0.00     0.039 C 
ENDBRANCH  14  15
ENDBRANCH  13  14
ENDBRANCH   6  13
ENDBRANCH   2   3
ENDBRANCH   1   2
BRANCH   1  18
ATOM     18  C   UNL     1       1.608   1.048   0.000  1.00  0.00     0.170 C 
ATOM     19  O   UNL     1       2.135   2.453   0.000  1.00  0.00    -0.294 OA
BRANCH  18  20
ATOM     20  C   UNL     1       2.560  -0.111   0.000  1.00  0.00     0.102 A 
ATOM     21  C   UNL     1       2.033  -1.515   0.000  1.00  0.00     0.133 A 
ATOM     22  C   UNL     1       4.040   0.135   0.000  1.00  0.00     0.137 A 
ATOM     23  C   UNL     1       2.985  -2.674   0.000  1.00  0.00     0.093 A 
ATOM     24  C   UNL     1       4.992  -1.024   0.000  1.00  0.00     0.040 A 
ATOM     25  C   UNL     1       4.465  -2.428   0.000  1.00  0.00     0.126 A 
BRANCH  21  26
ATOM     26  O   UNL     1       0.553  -1.760   0.000  1.00  0.00    -0.507 OA
ATOM     27  H   UNL     1       0.000   0.000   0.000  1.00  0.00     0.293 HD
ENDBRANCH  21  26
BRANCH  22  28
ATOM     28  O   UNL     1       4.568   1.539   0.000  1.00  0.00    -0.507 OA
ATOM     29  H   UNL     1       0.000   0.000   0.000  1.00  0.00     0.293 HD
ENDBRANCH  22  28
BRANCH  24  30
ATOM     30  C   UNL     1       6.472  -0.779   0.000  1.00  0.00     0.070 C 
BRANCH  30  31
ATOM     31  C   UNL     1       7.000   0.625   0.000  1.00  0.00    -0.023 C 
BRANCH  31  32
ATOM     32  C   UNL     1       8.480   0.871   0.000  1.00  0.00    -0.080 C 
ATOM     33  C   UNL     1       9.007   2.275   0.000  1.00  0.00     0.039 C 
ATOM     34  C   UNL     1       9.432  -0.288   0.000  1.00  0.00     0.039 C 
ENDBRANCH  31  32
ENDBRANCH  30  31
ENDBRANCH  24  30
BRANCH  25  35
ATOM     35  O   UNL     1       5.418  -3.587   0.000  1.00  0.00    -0.507 OA
ATOM     36  H   UNL     1       0.000   0.000   0.000  1.00  0.00     0.293 HD
ENDBRANCH  25  35
ENDBRANCH  18  20
ENDBRANCH   1  18
TORSDOF 15
