REMARK SMILES COc1cc([C@@H]2O[C@H](c3cc(OC)c4c(c3)OCO4)[C@@H](C)[C@@H]2C)cc(OC)c1O
REMARK SMILES IDX 6 1 7 2 8 3 20 4 21 5 22 6 23 7 5 8 3 9 4 10 28 11 25 12
REMARK SMILES IDX 24 13 2 14 1 15 29 16 26 18 27 19 9 20 10 21 16 22 11 23
REMARK SMILES IDX 15 24 14 25 17 26 19 27 18 28 12 29 13 30
REMARK H PARENT 29 17
ROOT
ATOM      1  C   UNL     1       1.226   0.758   0.000  1.00  0.00     0.152 C 
ATOM      2  O   UNL     1       0.003  -0.110   0.000  1.00  0.00    -0.365 OA
ATOM      3  C   UNL     1      -1.200   0.785   0.000  1.00  0.00     0.152 C 
ATOM      4  C   UNL     1      -0.721   2.207   0.000  1.00  0.00     0.025 C 
ATOM      5  C   UNL     1      -1.588   3.430   0.000  1.00  0.00     0.011 C 
ATOM      6  C   UNL     1       0.779   2.190   0.000  1.00  0.00     0.025 C 
ATOM      7  C   UNL     1       1.675   3.393   0.000  1.00  0.00     0.011 C 
ENDROOT
BRANCH   1   8
ATOM      8  C   UNL     1       2.648   0.278   0.000  1.00  0.00    -0.011 A 
ATOM      9  C   UNL     1       4.364  -1.673   0.000  1.00  0.00     0.164 A 
ATOM     10  C   UNL     1       2.943  -1.193   0.000  1.00  0.00     0.057 A 
ATOM     11  C   UNL     1       5.490  -0.682   0.000  1.00  0.00     0.200 A 
ATOM     12  C   UNL     1       5.195   0.789   0.000  1.00  0.00     0.164 A 
ATOM     13  C   UNL     1       3.774   1.269   0.000  1.00  0.00     0.057 A 
BRANCH   9  14
ATOM     14  O   UNL     1       4.659  -3.143   0.000  1.00  0.00    -0.493 OA
ATOM     15  C   UNL     1       3.533  -4.134   0.000  1.00  0.00     0.278 C 
ENDBRANCH   9  14
BRANCH  11  16
ATOM     16  O   UNL     1       6.911  -1.161   0.000  1.00  0.00    -0.502 OA
ATOM     17  H   UNL     1       0.000   0.000   0.000  1.00  0.00     0.293 HD
ENDBRANCH  11  16
BRANCH  12  18
ATOM     18  O   UNL     1       6.321   1.780   0.000  1.00  0.00    -0.493 OA
ATOM     19  C   UNL     1       7.742   1.300   0.000  1.00  0.00     0.278 C 
ENDBRANCH  12  18
ENDBRANCH   1   8
BRANCH   3  20
ATOM     20  C   UNL     1      -2.632   0.338   0.000  1.00  0.00    -0.011 A 
ATOM     21  C   UNL     1      -2.961  -1.125   0.000  1.00  0.00     0.057 A 
ATOM     22  C   UNL     1      -3.735   1.355   0.000  1.00  0.00     0.057 A 
ATOM     23  C   UNL     1      -4.393  -1.572   0.000  1.00  0.00     0.165 A 
ATOM     24  C   UNL     1      -5.167   0.907   0.000  1.00  0.00     0.170 A 
ATOM     25  C   UNL     1      -5.496  -0.556   0.000  1.00  0.00     0.207 A 
ATOM     26  O   UNL     1      -6.458   1.672   0.000  1.00  0.00    -0.453 OA
ATOM     27  O   UNL     1      -6.989  -0.696   0.000  1.00  0.00    -0.450 OA
ATOM     28  C   UNL     1      -7.584   0.681   0.000  1.00  0.00     0.468 C 
BRANCH  23  29
ATOM     29  O   UNL     1      -4.721  -3.036   0.000  1.00  0.00    -0.493 OA
ATOM     30  C   UNL     1      -3.618  -4.052   0.000  1.00  0.00     0.278 C 
ENDBRANCH  23  29
ENDBRANCH   3  20
TORSDOF 6
