REMARK SMILES COc1cc2ccc3occc3c2oc1=O
REMARK SMILES IDX 3 1 4 2 5 3 6 4 7 5 8 6 9 7 10 8 11 9 12 10 13 11 14 12
REMARK SMILES IDX 15 13 16 14 2 15 1 16
REMARK H PARENT
ROOT
ATOM      1  C   UNL     1       2.615   0.034   0.000  1.00  0.00     0.205 A 
ATOM      2  C   UNL     1       1.744  -1.187   0.000  1.00  0.00     0.066 A 
ATOM      3  C   UNL     1       0.251  -1.043   0.000  1.00  0.00     0.022 A 
ATOM      4  C   UNL     1      -0.621  -2.264   0.000  1.00  0.00     0.016 A 
ATOM      5  C   UNL     1      -2.114  -2.119   0.000  1.00  0.00     0.048 A 
ATOM      6  C   UNL     1      -2.736  -0.754   0.000  1.00  0.00     0.137 A 
ATOM      7  O   UNL     1      -4.166  -0.303   0.000  1.00  0.00    -0.464 OA
ATOM      8  C   UNL     1      -4.179   1.197   0.000  1.00  0.00     0.196 A 
ATOM      9  C   UNL     1      -2.756   1.673   0.000  1.00  0.00     0.054 A 
ATOM     10  C   UNL     1      -1.864   0.467   0.000  1.00  0.00     0.064 A 
ATOM     11  C   UNL     1      -0.371   0.322   0.000  1.00  0.00     0.149 A 
ATOM     12  O   UNL     1       0.500   1.543   0.000  1.00  0.00    -0.419 OA
ATOM     13  C   UNL     1       1.994   1.399   0.000  1.00  0.00     0.379 A 
ATOM     14  O   UNL     1       2.865   2.620   0.000  1.00  0.00    -0.242 OA
ENDROOT
BRANCH   1  15
ATOM     15  O   UNL     1       4.108  -0.110   0.000  1.00  0.00    -0.490 OA
ATOM     16  C   UNL     1       4.730  -1.476   0.000  1.00  0.00     0.278 C 
ENDBRANCH   1  15
TORSDOF 1
