REMARK SMILES CC(=O)O[C@H]1C[C@@H]2CC[C@H]3[C@@H]4CC(=O)C[C@@]4(C)CC[C@@H]3[C@]23CO[C@@]1(OC(C)=O)C3
REMARK SMILES IDX 5 1 6 2 7 3 8 4 9 5 10 6 11 7 12 8 13 9 14 10 15 11 16 12
REMARK SMILES IDX 17 13 18 14 19 15 20 16 21 17 22 18 23 19 24 20 29 21 4 22
REMARK SMILES IDX 2 23 1 24 3 25 25 26 26 27 27 28 28 29
REMARK H PARENT
ROOT
ATOM      1  C   UNL     1      -2.947   0.481   0.000  1.00  0.00     0.249 C 
ATOM      2  C   UNL     1      -2.069   1.697   0.000  1.00  0.00     0.056 C 
ATOM      3  C   UNL     1      -0.577   1.545   0.000  1.00  0.00     0.002 C 
ATOM      4  C   UNL     1       0.436   2.645   0.000  1.00  0.00     0.005 C 
ATOM      5  C   UNL     1       1.901   2.325   0.000  1.00  0.00     0.004 C 
ATOM      6  C   UNL     1       2.357   0.896   0.000  1.00  0.00    -0.003 C 
ATOM      7  C   UNL     1       3.823   0.576   0.000  1.00  0.00     0.006 C 
ATOM      8  C   UNL     1       5.041   1.451   0.000  1.00  0.00     0.080 C 
ATOM      9  C   UNL     1       6.250   0.562   0.000  1.00  0.00     0.133 C 
ATOM     10  O   UNL     1       7.679   1.018   0.000  1.00  0.00    -0.300 OA
ATOM     11  C   UNL     1       5.778  -0.862   0.000  1.00  0.00     0.082 C 
ATOM     12  C   UNL     1       4.278  -0.853   0.000  1.00  0.00    -0.022 C 
ATOM     13  C   UNL     1       4.881  -2.227   0.000  1.00  0.00     0.012 C 
ATOM     14  C   UNL     1       3.268  -1.962   0.000  1.00  0.00     0.008 C 
ATOM     15  C   UNL     1       1.803  -1.643   0.000  1.00  0.00     0.005 C 
ATOM     16  C   UNL     1       1.347  -0.213   0.000  1.00  0.00     0.001 C 
ATOM     17  C   UNL     1      -0.118   0.107   0.000  1.00  0.00     0.006 C 
ATOM     18  C   UNL     1       0.043  -1.385   0.000  1.00  0.00     0.173 C 
ATOM     19  O   UNL     1      -1.325  -1.999   0.000  1.00  0.00    -0.337 OA
ATOM     20  C   UNL     1      -2.332  -0.888   0.000  1.00  0.00     0.251 C 
ATOM     21  C   UNL     1      -1.587   0.414   0.000  1.00  0.00     0.094 C 
ENDROOT
BRANCH   1  22
ATOM     22  O   UNL     1      -4.439   0.632   0.000  1.00  0.00    -0.456 OA
BRANCH  22  23
ATOM     23  C   UNL     1      -5.054   2.001   0.000  1.00  0.00     0.303 C 
ATOM     24  C   UNL     1      -6.546   2.153   0.000  1.00  0.00     0.139 C 
ATOM     25  O   UNL     1      -4.176   3.217   0.000  1.00  0.00    -0.253 OA
ENDBRANCH  22  23
ENDBRANCH   1  22
BRANCH  20  26
ATOM     26  O   UNL     1      -3.824  -1.049   0.000  1.00  0.00    -0.429 OA
BRANCH  26  27
ATOM     27  C   UNL     1      -4.429  -2.422   0.000  1.00  0.00     0.305 C 
ATOM     28  C   UNL     1      -5.920  -2.583   0.000  1.00  0.00     0.139 C 
ATOM     29  O   UNL     1      -3.543  -3.632   0.000  1.00  0.00    -0.253 OA
ENDBRANCH  26  27
ENDBRANCH  20  26
TORSDOF 4
