REMARK SMILES C=C/C(C)=C\C[C@]1(C)[C@H](C)C[C@H](O)[C@@]2(C=O)C(C=O)=C[C@H](OC(=O)CCC)C[C@@H]12
REMARK SMILES IDX 7 1 8 2 9 3 10 4 11 5 12 6 14 7 17 8 20 9 21 10 28 11 29 12
REMARK SMILES IDX 6 13 5 14 3 15 4 16 2 17 1 18 15 19 16 20 13 21 22 23 23 24
REMARK SMILES IDX 24 25 25 26 26 27 27 28 18 29 19 30
REMARK H PARENT 13 22
ROOT
ATOM      1  C   UNL     1      -1.984  -0.172   0.000  1.00  0.00    -0.022 C 
ATOM      2  C   UNL     1      -1.563   1.267   0.000  1.00  0.00     0.012 C 
ATOM      3  C   UNL     1      -2.872  -1.381   0.000  1.00  0.00    -0.005 C 
ATOM      4  C   UNL     1      -4.363  -1.216   0.000  1.00  0.00     0.008 C 
ATOM      5  C   UNL     1      -2.270  -2.755   0.000  1.00  0.00     0.037 C 
ATOM      6  C   UNL     1      -0.779  -2.920   0.000  1.00  0.00     0.132 C 
ATOM      7  C   UNL     1       0.110  -1.711   0.000  1.00  0.00     0.083 C 
ATOM      8  C   UNL     1       1.600  -1.875   0.000  1.00  0.00     0.008 C 
ATOM      9  C   UNL     1       2.489  -0.667   0.000  1.00  0.00     0.025 C 
ATOM     10  C   UNL     1       1.886   0.707   0.000  1.00  0.00     0.200 C 
ATOM     11  C   UNL     1       0.395   0.872   0.000  1.00  0.00     0.055 C 
ATOM     12  C   UNL     1      -0.493  -0.337   0.000  1.00  0.00     0.020 C 
ENDROOT
BRANCH   1  13
ATOM     13  C   UNL     1      -3.329   0.492   0.000  1.00  0.00     0.035 C 
BRANCH  13  14
ATOM     14  C   UNL     1      -3.425   1.989   0.000  1.00  0.00    -0.023 C 
BRANCH  14  15
ATOM     15  C   UNL     1      -4.770   2.654   0.000  1.00  0.00    -0.056 C 
ATOM     16  C   UNL     1      -4.867   4.151   0.000  1.00  0.00     0.044 C 
BRANCH  15  17
ATOM     17  C   UNL     1      -6.018   1.822   0.000  1.00  0.00    -0.005 C 
ATOM     18  C   UNL     1      -7.363   2.487   0.000  1.00  0.00     0.009 C 
ENDBRANCH  15  17
ENDBRANCH  14  15
ENDBRANCH  13  14
ENDBRANCH   1  13
BRANCH   7  19
ATOM     19  C   UNL     1       0.712  -3.084   0.000  1.00  0.00     0.238 C 
ATOM     20  O   UNL     1       0.322  -3.779   0.000  1.00  0.00    -0.302 OA
ENDBRANCH   7  19
BRANCH   6  21
ATOM     21  O   UNL     1      -0.550  -3.683   0.000  1.00  0.00    -0.392 OA
ATOM     22  H   UNL     1       0.000   0.000   0.000  1.00  0.00     0.211 HD
ENDBRANCH   6  21
BRANCH  10  23
ATOM     23  O   UNL     1       2.774   1.916   0.000  1.00  0.00    -0.458 OA
BRANCH  23  24
ATOM     24  C   UNL     1       4.265   1.751   0.000  1.00  0.00     0.306 C 
ATOM     25  O   UNL     1       4.868   0.377   0.000  1.00  0.00    -0.252 OA
BRANCH  24  26
ATOM     26  C   UNL     1       5.153   2.960   0.000  1.00  0.00     0.122 C 
BRANCH  26  27
ATOM     27  C   UNL     1       6.644   2.795   0.000  1.00  0.00     0.008 C 
ATOM     28  C   UNL     1       7.532   4.004   0.000  1.00  0.00     0.004 C 
ENDBRANCH  26  27
ENDBRANCH  24  26
ENDBRANCH  23  24
ENDBRANCH  10  23
BRANCH   8  29
ATOM     29  C   UNL     1       2.203  -3.249   0.000  1.00  0.00     0.256 C 
ATOM     30  O   UNL     1       3.694  -3.414   0.000  1.00  0.00    -0.298 OA
ENDBRANCH   8  29
TORSDOF 11
