REMARK SMILES CCCCCCCCCCCCCCCC(=O)O
REMARK SMILES IDX 9 1 8 2 7 3 6 4 5 5 4 6 3 7 2 8 1 9 10 10 11 11 12 12 13 13
REMARK SMILES IDX 14 14 15 15 16 16 17 17 18 18
REMARK H PARENT 18 19
ROOT
ATOM      1  C   UNL     1      -0.515  -0.447   0.000  1.00  0.00     0.000 C 
ENDROOT
BRANCH   1   2
ATOM      2  C   UNL     1      -1.798   0.330   0.000  1.00  0.00     0.000 C 
BRANCH   2   3
ATOM      3  C   UNL     1      -3.112  -0.392   0.000  1.00  0.00    -0.000 C 
BRANCH   3   4
ATOM      4  C   UNL     1      -4.395   0.386   0.000  1.00  0.00    -0.000 C 
BRANCH   4   5
ATOM      5  C   UNL     1      -5.710  -0.336   0.000  1.00  0.00    -0.000 C 
BRANCH   5   6
ATOM      6  C   UNL     1      -6.992   0.441   0.000  1.00  0.00    -0.000 C 
BRANCH   6   7
ATOM      7  C   UNL     1      -8.307  -0.281   0.000  1.00  0.00    -0.000 C 
BRANCH   7   8
ATOM      8  C   UNL     1      -9.590   0.497   0.000  1.00  0.00    -0.003 C 
ATOM      9  C   UNL     1     -10.905  -0.225   0.000  1.00  0.00     0.004 C 
ENDBRANCH   7   8
ENDBRANCH   6   7
ENDBRANCH   5   6
ENDBRANCH   4   5
ENDBRANCH   3   4
ENDBRANCH   2   3
ENDBRANCH   1   2
BRANCH   1  10
ATOM     10  C   UNL     1       0.800   0.275   0.000  1.00  0.00     0.000 C 
BRANCH  10  11
ATOM     11  C   UNL     1       2.083  -0.503   0.000  1.00  0.00     0.000 C 
BRANCH  11  12
ATOM     12  C   UNL     1       3.397   0.219   0.000  1.00  0.00     0.000 C 
BRANCH  12  13
ATOM     13  C   UNL     1       4.680  -0.559   0.000  1.00  0.00     0.001 C 
BRANCH  13  14
ATOM     14  C   UNL     1       5.995   0.163   0.000  1.00  0.00     0.012 C 
BRANCH  14  15
ATOM     15  C   UNL     1       7.278  -0.614   0.000  1.00  0.00     0.122 C 
BRANCH  15  16
ATOM     16  C   UNL     1       8.592   0.108   0.000  1.00  0.00     0.303 C 
ATOM     17  O   UNL     1       8.624   1.607   0.000  1.00  0.00    -0.252 OA
BRANCH  16  18
ATOM     18  O   UNL     1       9.875  -0.670   0.000  1.00  0.00    -0.481 OA
ATOM     19  H   UNL     1       0.000   0.000   0.000  1.00  0.00     0.296 HD
ENDBRANCH  16  18
ENDBRANCH  15  16
ENDBRANCH  14  15
ENDBRANCH  13  14
ENDBRANCH  12  13
ENDBRANCH  11  12
ENDBRANCH  10  11
ENDBRANCH   1  10
TORSDOF 15
