REMARK SMILES O=C(O[C@H]1C([C@]2(c3ccc(O)c(O)c3)CC[C@H](Cc3ccc(O)c(O)c3)C(=O)O2)OC[C@@H]1O)c1cc(O)cc(O)c1
REMARK SMILES IDX 4 1 5 2 30 3 31 4 32 5 3 6 2 7 1 8 34 9 35 10 41 11 36 12
REMARK SMILES IDX 39 13 38 14 37 15 40 17 6 19 15 20 29 21 16 22 27 23 17 24
REMARK SMILES IDX 28 25 7 26 8 27 14 28 9 29 12 30 10 31 13 32 11 34 18 36
REMARK SMILES IDX 19 37 20 38 26 39 21 40 24 41 22 42 25 43 23 45 33 47
REMARK H PARENT 37 16 40 18 13 33 11 35 25 44 23 46 33 48
ROOT
ATOM      1  C   UNL     1       2.264   1.839   0.000  1.00  0.00     0.241 C 
ATOM      2  C   UNL     1       0.885   2.431   0.000  1.00  0.00     0.210 C 
ATOM      3  O   UNL     1       1.023   3.925   0.000  1.00  0.00    -0.367 OA
ATOM      4  C   UNL     1       2.486   4.256   0.000  1.00  0.00     0.196 C 
ATOM      5  C   UNL     1       3.253   2.967   0.000  1.00  0.00     0.184 C 
ENDROOT
BRANCH   1   6
ATOM      6  O   UNL     1       2.595   0.376   0.000  1.00  0.00    -0.453 OA
BRANCH   6   7
ATOM      7  C   UNL     1       4.027  -0.069   0.000  1.00  0.00     0.338 C 
ATOM      8  O   UNL     1       5.129   0.950   0.000  1.00  0.00    -0.246 OA
BRANCH   7   9
ATOM      9  C   UNL     1       4.358  -1.532   0.000  1.00  0.00     0.067 A 
ATOM     10  C   UNL     1       3.257  -2.550   0.000  1.00  0.00     0.062 A 
ATOM     11  C   UNL     1       5.791  -1.976   0.000  1.00  0.00     0.062 A 
ATOM     12  C   UNL     1       3.588  -4.013   0.000  1.00  0.00     0.120 A 
ATOM     13  C   UNL     1       6.122  -3.439   0.000  1.00  0.00     0.120 A 
ATOM     14  C   UNL     1       5.021  -4.458   0.000  1.00  0.00     0.092 A 
BRANCH  12  15
ATOM     15  O   UNL     1       2.487  -5.031   0.000  1.00  0.00    -0.508 OA
ATOM     16  H   UNL     1       0.000   0.000   0.000  1.00  0.00     0.293 HD
ENDBRANCH  12  15
BRANCH  13  17
ATOM     17  O   UNL     1       7.555  -3.884   0.000  1.00  0.00    -0.508 OA
ATOM     18  H   UNL     1       0.000   0.000   0.000  1.00  0.00     0.293 HD
ENDBRANCH  13  17
ENDBRANCH   7   9
ENDBRANCH   6   7
ENDBRANCH   1   6
BRANCH   2  19
ATOM     19  C   UNL     1      -0.404   1.664   0.000  1.00  0.00     0.167 C 
ATOM     20  C   UNL     1      -1.877   1.384   0.000  1.00  0.00     0.058 C 
ATOM     21  O   UNL     1       0.576   0.528   0.000  1.00  0.00    -0.451 OA
ATOM     22  C   UNL     1      -2.372  -0.032   0.000  1.00  0.00     0.020 C 
ATOM     23  C   UNL     1       0.081  -0.888   0.000  1.00  0.00     0.310 C 
ATOM     24  C   UNL     1      -1.393  -1.168   0.000  1.00  0.00     0.104 C 
ATOM     25  O   UNL     1       1.060  -2.025   0.000  1.00  0.00    -0.252 OA
BRANCH  19  26
ATOM     26  C   UNL     1      -0.935   3.067   0.000  1.00  0.00     0.002 A 
ATOM     27  C   UNL     1       0.014   4.229   0.000  1.00  0.00     0.012 A 
ATOM     28  C   UNL     1      -2.416   3.308   0.000  1.00  0.00     0.058 A 
ATOM     29  C   UNL     1      -0.518   5.631   0.000  1.00  0.00     0.050 A 
ATOM     30  C   UNL     1      -2.947   4.710   0.000  1.00  0.00     0.157 A 
ATOM     31  C   UNL     1      -1.998   5.872   0.000  1.00  0.00     0.157 A 
BRANCH  30  32
ATOM     32  O   UNL     1      -4.428   4.952   0.000  1.00  0.00    -0.504 OA
ATOM     33  H   UNL     1       0.000   0.000   0.000  1.00  0.00     0.293 HD
ENDBRANCH  30  32
BRANCH  31  34
ATOM     34  O   UNL     1      -2.530   7.275   0.000  1.00  0.00    -0.504 OA
ATOM     35  H   UNL     1       0.000   0.000   0.000  1.00  0.00     0.293 HD
ENDBRANCH  31  34
ENDBRANCH  19  26
BRANCH  24  36
ATOM     36  C   UNL     1      -1.887  -2.584   0.000  1.00  0.00     0.051 C 
BRANCH  36  37
ATOM     37  C   UNL     1      -3.361  -2.864   0.000  1.00  0.00    -0.043 A 
ATOM     38  C   UNL     1      -4.340  -1.728   0.000  1.00  0.00     0.008 A 
ATOM     39  C   UNL     1      -3.855  -4.280   0.000  1.00  0.00     0.054 A 
ATOM     40  C   UNL     1      -5.814  -2.008   0.000  1.00  0.00     0.050 A 
ATOM     41  C   UNL     1      -5.329  -4.560   0.000  1.00  0.00     0.157 A 
ATOM     42  C   UNL     1      -6.308  -3.424   0.000  1.00  0.00     0.157 A 
BRANCH  41  43
ATOM     43  O   UNL     1      -5.823  -5.976   0.000  1.00  0.00    -0.504 OA
ATOM     44  H   UNL     1       0.000   0.000   0.000  1.00  0.00     0.293 HD
ENDBRANCH  41  43
BRANCH  42  45
ATOM     45  O   UNL     1      -7.782  -3.704   0.000  1.00  0.00    -0.504 OA
ATOM     46  H   UNL     1       0.000   0.000   0.000  1.00  0.00     0.293 HD
ENDBRANCH  42  45
ENDBRANCH  36  37
ENDBRANCH  24  36
ENDBRANCH   2  19
BRANCH   5  47
ATOM     47  O   UNL     1       4.746   2.830   0.000  1.00  0.00    -0.387 OA
ATOM     48  H   UNL     1       0.000   0.000   0.000  1.00  0.00     0.211 HD
ENDBRANCH   5  47
TORSDOF 14
