REMARK SMILES C=CC(=C)CCC=C(C)CCC=C(C)C
REMARK SMILES IDX 7 1 6 2 5 3 3 4 4 5 2 6 1 7 8 8 9 9 10 10 11 11 12 12 13 13
REMARK SMILES IDX 14 14 15 15
REMARK H PARENT
ROOT
ATOM      1  C   UNL     1       0.915  -1.890   0.000  1.00  0.00    -0.028 C 
ENDROOT
BRANCH   1   2
ATOM      2  C   UNL     1       1.758  -0.649   0.000  1.00  0.00     0.032 C 
BRANCH   2   3
ATOM      3  C   UNL     1       3.254  -0.758   0.000  1.00  0.00     0.039 C 
BRANCH   3   4
ATOM      4  C   UNL     1       4.096   0.483   0.000  1.00  0.00    -0.055 C 
ATOM      5  C   UNL     1       3.442   1.833   0.000  1.00  0.00     0.012 C 
BRANCH   4   6
ATOM      6  C   UNL     1       5.592   0.374   0.000  1.00  0.00    -0.005 C 
ATOM      7  C   UNL     1       6.434   1.616   0.000  1.00  0.00     0.009 C 
ENDBRANCH   4   6
ENDBRANCH   3   4
ENDBRANCH   2   3
ENDBRANCH   1   2
BRANCH   1   8
ATOM      8  C   UNL     1      -0.581  -1.781   0.000  1.00  0.00    -0.077 C 
ATOM      9  C   UNL     1      -1.423  -3.022   0.000  1.00  0.00     0.039 C 
BRANCH   8  10
ATOM     10  C   UNL     1      -1.235  -0.431   0.000  1.00  0.00     0.034 C 
BRANCH  10  11
ATOM     11  C   UNL     1      -2.731  -0.322   0.000  1.00  0.00     0.032 C 
BRANCH  11  12
ATOM     12  C   UNL     1      -3.384   1.028   0.000  1.00  0.00    -0.028 C 
BRANCH  12  13
ATOM     13  C   UNL     1      -4.880   1.137   0.000  1.00  0.00    -0.080 C 
ATOM     14  C   UNL     1      -5.534   2.487   0.000  1.00  0.00     0.039 C 
ATOM     15  C   UNL     1      -5.723  -0.104   0.000  1.00  0.00     0.039 C 
ENDBRANCH  12  13
ENDBRANCH  11  12
ENDBRANCH  10  11
ENDBRANCH   8  10
ENDBRANCH   1   8
TORSDOF 9
