REMARK SMILES C=C(C)C1=Cc2c(C)ccc(C)c2C(=O)C1=O
REMARK SMILES IDX 4 1 5 2 6 3 7 4 8 5 9 6 10 7 11 8 12 9 13 10 14 11 15 12
REMARK SMILES IDX 16 13 17 14 2 15 1 16 3 17
REMARK H PARENT
ROOT
ATOM      1  C   UNL     1      -1.799  -0.298   0.000  1.00  0.00     0.029 C 
ATOM      2  C   UNL     1      -0.708  -1.328   0.000  1.00  0.00     0.021 C 
ATOM      3  C   UNL     1       0.729  -0.899   0.000  1.00  0.00    -0.010 A 
ATOM      4  C   UNL     1       1.819  -1.929   0.000  1.00  0.00    -0.043 A 
ATOM      5  C   UNL     1       1.472  -3.388   0.000  1.00  0.00     0.045 C 
ATOM      6  C   UNL     1       3.256  -1.500   0.000  1.00  0.00     0.004 A 
ATOM      7  C   UNL     1       3.603  -0.040   0.000  1.00  0.00     0.004 A 
ATOM      8  C   UNL     1       2.513   0.990   0.000  1.00  0.00    -0.039 A 
ATOM      9  C   UNL     1       2.860   2.449   0.000  1.00  0.00     0.045 C 
ATOM     10  C   UNL     1       1.076   0.560   0.000  1.00  0.00     0.036 A 
ATOM     11  C   UNL     1      -0.015   1.591   0.000  1.00  0.00     0.234 C 
ATOM     12  O   UNL     1       0.332   3.050   0.000  1.00  0.00    -0.285 OA
ATOM     13  C   UNL     1      -1.452   1.161   0.000  1.00  0.00     0.233 C 
ATOM     14  O   UNL     1      -2.542   2.191   0.000  1.00  0.00    -0.285 OA
ENDROOT
BRANCH   1  15
ATOM     15  C   UNL     1      -3.236  -0.727   0.000  1.00  0.00    -0.047 C 
ATOM     16  C   UNL     1      -3.583  -2.187   0.000  1.00  0.00     0.013 C 
ATOM     17  C   UNL     1      -4.326   0.303   0.000  1.00  0.00     0.044 C 
ENDBRANCH   1  15
TORSDOF 1
