REMARK SMILES CC1(C)C=Cc2c(ccc3c(=O)cc(-c4ccccc4)oc23)O1
REMARK SMILES IDX 1 1 2 2 3 3 4 4 5 5 6 6 7 7 8 8 9 9 10 10 22 11 21 12 14 13
REMARK SMILES IDX 13 14 11 15 12 16 23 17 15 18 16 19 20 20 17 21 19 22 18 23
REMARK H PARENT
ROOT
ATOM      1  C   UNL     1       5.935  -1.109   0.000  1.00  0.00     0.061 C 
ATOM      2  C   UNL     1       4.477  -1.463   0.000  1.00  0.00     0.122 C 
ATOM      3  C   UNL     1       5.078  -2.837   0.000  1.00  0.00     0.061 C 
ATOM      4  C   UNL     1       3.228  -2.294   0.000  1.00  0.00     0.021 C 
ATOM      5  C   UNL     1       1.884  -1.627   0.000  1.00  0.00     0.015 C 
ATOM      6  C   UNL     1       1.789  -0.130   0.000  1.00  0.00     0.060 A 
ATOM      7  C   UNL     1       3.038   0.700   0.000  1.00  0.00     0.131 A 
ATOM      8  C   UNL     1       2.943   2.197   0.000  1.00  0.00     0.048 A 
ATOM      9  C   UNL     1       1.599   2.864   0.000  1.00  0.00     0.020 A 
ATOM     10  C   UNL     1       0.350   2.033   0.000  1.00  0.00     0.066 A 
ATOM     11  C   UNL     1       0.445   0.536   0.000  1.00  0.00     0.149 A 
ATOM     12  O   UNL     1      -0.804  -0.295   0.000  1.00  0.00    -0.455 OA
ATOM     13  C   UNL     1      -2.148   0.371   0.000  1.00  0.00     0.138 A 
ATOM     14  C   UNL     1      -2.243   1.868   0.000  1.00  0.00     0.100 A 
ATOM     15  C   UNL     1      -0.994   2.699   0.000  1.00  0.00     0.193 A 
ATOM     16  O   UNL     1      -1.089   4.196   0.000  1.00  0.00    -0.289 OA
ATOM     17  O   UNL     1       4.382   0.034   0.000  1.00  0.00    -0.483 OA
ENDROOT
BRANCH  13  18
ATOM     18  C   UNL     1      -3.397  -0.460   0.000  1.00  0.00     0.017 A 
ATOM     19  C   UNL     1      -4.740   0.206   0.000  1.00  0.00     0.012 A 
ATOM     20  C   UNL     1      -3.301  -1.957   0.000  1.00  0.00     0.012 A 
ATOM     21  C   UNL     1      -5.989  -0.624   0.000  1.00  0.00     0.001 A 
ATOM     22  C   UNL     1      -4.550  -2.788   0.000  1.00  0.00     0.001 A 
ATOM     23  C   UNL     1      -5.894  -2.121   0.000  1.00  0.00     0.000 A 
ENDBRANCH  13  18
TORSDOF 1
