REMARK SMILES CC(C)=CCCC(C)=CCOC(=O)c1ccc(O)cc1
REMARK SMILES IDX 9 1 7 2 8 3 6 4 5 5 4 6 2 7 1 8 3 9 10 10 11 11 12 12 13 13
REMARK SMILES IDX 14 14 15 15 20 16 16 17 19 18 17 19 18 20
REMARK H PARENT 18 21
ROOT
ATOM      1  C   UNL     1      -1.114   1.873   0.000  1.00  0.00     0.013 C 
ENDROOT
BRANCH   1   2
ATOM      2  C   UNL     1      -2.610   1.764   0.000  1.00  0.00    -0.074 C 
ATOM      3  C   UNL     1      -3.452   3.005   0.000  1.00  0.00     0.039 C 
BRANCH   2   4
ATOM      4  C   UNL     1      -3.264   0.414   0.000  1.00  0.00     0.034 C 
BRANCH   4   5
ATOM      5  C   UNL     1      -4.760   0.305   0.000  1.00  0.00     0.032 C 
BRANCH   5   6
ATOM      6  C   UNL     1      -5.413  -1.045   0.000  1.00  0.00    -0.028 C 
BRANCH   6   7
ATOM      7  C   UNL     1      -6.910  -1.154   0.000  1.00  0.00    -0.080 C 
ATOM      8  C   UNL     1      -7.563  -2.504   0.000  1.00  0.00     0.039 C 
ATOM      9  C   UNL     1      -7.752   0.087   0.000  1.00  0.00     0.039 C 
ENDBRANCH   6   7
ENDBRANCH   5   6
ENDBRANCH   4   5
ENDBRANCH   2   4
ENDBRANCH   1   2
BRANCH   1  10
ATOM     10  C   UNL     1      -0.272   0.631   0.000  1.00  0.00     0.261 C 
BRANCH  10  11
ATOM     11  O   UNL     1       1.224   0.740   0.000  1.00  0.00    -0.458 OA
BRANCH  11  12
ATOM     12  C   UNL     1       2.067  -0.501   0.000  1.00  0.00     0.338 C 
ATOM     13  O   UNL     1       1.413  -1.851   0.000  1.00  0.00    -0.246 OA
BRANCH  12  14
ATOM     14  C   UNL     1       3.563  -0.392   0.000  1.00  0.00     0.060 A 
ATOM     15  C   UNL     1       4.217   0.958   0.000  1.00  0.00     0.019 A 
ATOM     16  C   UNL     1       4.405  -1.633   0.000  1.00  0.00     0.019 A 
ATOM     17  C   UNL     1       5.713   1.067   0.000  1.00  0.00     0.047 A 
ATOM     18  C   UNL     1       5.901  -1.524   0.000  1.00  0.00     0.047 A 
ATOM     19  C   UNL     1       6.555  -0.174   0.000  1.00  0.00     0.115 A 
BRANCH  19  20
ATOM     20  O   UNL     1       8.051  -0.065   0.000  1.00  0.00    -0.508 OA
ATOM     21  H   UNL     1       0.000   0.000   0.000  1.00  0.00     0.293 HD
ENDBRANCH  19  20
ENDBRANCH  12  14
ENDBRANCH  11  12
ENDBRANCH  10  11
ENDBRANCH   1  10
TORSDOF 10
