REMARK SMILES COC(=O)C1=CO[C@@H](O[C@@H]2O[C@H](CO)[C@@H](O)[C@H](O)[C@H]2O)[C@@H]2[C@@H](C(=O)O)C=C[C@H]12
REMARK SMILES IDX 9 1 8 2 5 3 6 4 28 5 7 6 27 7 21 8 26 9 22 10 3 11 4 12 2 13
REMARK SMILES IDX 1 14 23 15 24 16 25 17 10 19 11 20 19 21 12 22 17 23 15 24
REMARK SMILES IDX 20 25 13 27 14 28 18 30 16 32
REMARK H PARENT 25 18 20 26 14 29 18 31 16 33
ROOT
ATOM      1  O   UNL     1       0.870  -1.003   0.000  1.00  0.00    -0.310 OA
ENDROOT
BRANCH   1   2
ATOM      2  C   UNL     1      -0.480  -0.350   0.000  1.00  0.00     0.314 C 
ATOM      3  C   UNL     1      -3.182   0.954   0.000  1.00  0.00     0.079 C 
ATOM      4  C   UNL     1      -1.942   1.798   0.000  1.00  0.00     0.202 C 
ATOM      5  C   UNL     1      -3.071  -0.542   0.000  1.00  0.00     0.063 C 
ATOM      6  O   UNL     1      -0.591   1.145   0.000  1.00  0.00    -0.471 OA
ATOM      7  C   UNL     1      -4.109  -1.625   0.000  1.00  0.00    -0.021 C 
ATOM      8  C   UNL     1      -1.721  -1.194   0.000  1.00  0.00     0.088 C 
ATOM      9  C   UNL     1      -3.400  -2.946   0.000  1.00  0.00    -0.015 C 
ATOM     10  C   UNL     1      -1.924  -2.680   0.000  1.00  0.00     0.132 C 
BRANCH   3  11
ATOM     11  C   UNL     1      -4.533   1.607   0.000  1.00  0.00     0.337 C 
ATOM     12  O   UNL     1      -5.773   0.763   0.000  1.00  0.00    -0.246 OA
BRANCH  11  13
ATOM     13  O   UNL     1      -4.643   3.103   0.000  1.00  0.00    -0.466 OA
ATOM     14  C   UNL     1      -5.994   3.755   0.000  1.00  0.00     0.282 C 
ENDBRANCH  11  13
ENDBRANCH   3  11
BRANCH  10  15
ATOM     15  C   UNL     1      -0.841  -3.718   0.000  1.00  0.00     0.310 C 
ATOM     16  O   UNL     1       0.600  -3.299   0.000  1.00  0.00    -0.252 OA
BRANCH  15  17
ATOM     17  O   UNL     1      -1.198  -5.175   0.000  1.00  0.00    -0.481 OA
ATOM     18  H   UNL     1       0.000   0.000   0.000  1.00  0.00     0.296 HD
ENDBRANCH  15  17
ENDBRANCH  10  15
ENDBRANCH   1   2
BRANCH   1  19
ATOM     19  C   UNL     1       2.111  -0.159   0.000  1.00  0.00     0.286 C 
ATOM     20  O   UNL     1       3.461  -0.812   0.000  1.00  0.00    -0.341 OA
ATOM     21  C   UNL     1       2.000   1.337   0.000  1.00  0.00     0.202 C 
ATOM     22  C   UNL     1       4.702   0.032   0.000  1.00  0.00     0.178 C 
ATOM     23  C   UNL     1       3.240   2.180   0.000  1.00  0.00     0.179 C 
ATOM     24  C   UNL     1       4.591   1.528   0.000  1.00  0.00     0.177 C 
BRANCH  21  25
ATOM     25  O   UNL     1       0.649   1.989   0.000  1.00  0.00    -0.385 OA
ATOM     26  H   UNL     1       0.000   0.000   0.000  1.00  0.00     0.211 HD
ENDBRANCH  21  25
BRANCH  22  27
ATOM     27  C   UNL     1       6.052  -0.620   0.000  1.00  0.00     0.191 C 
BRANCH  27  28
ATOM     28  O   UNL     1       6.163  -2.116   0.000  1.00  0.00    -0.394 OA
ATOM     29  H   UNL     1       0.000   0.000   0.000  1.00  0.00     0.210 HD
ENDBRANCH  27  28
ENDBRANCH  22  27
BRANCH  23  30
ATOM     30  O   UNL     1       3.130   3.676   0.000  1.00  0.00    -0.387 OA
ATOM     31  H   UNL     1       0.000   0.000   0.000  1.00  0.00     0.211 HD
ENDBRANCH  23  30
BRANCH  24  32
ATOM     32  O   UNL     1       5.832   2.372   0.000  1.00  0.00    -0.387 OA
ATOM     33  H   UNL     1       0.000   0.000   0.000  1.00  0.00     0.211 HD
ENDBRANCH  24  32
ENDBRANCH   1  19
TORSDOF 11
