REMARK SMILES Cc1ccc(C=O)c2c(O)c(O)c(C(C)C)cc12
REMARK SMILES IDX 1 1 2 2 3 3 4 4 5 5 8 6 9 7 11 8 13 9 17 10 18 11 6 12 7 13
REMARK SMILES IDX 14 14 15 15 16 16 10 17 12 19
REMARK H PARENT 10 18 12 20
ROOT
ATOM      1  C   UNL     1      -0.542  -3.717   0.000  1.00  0.00     0.045 C 
ATOM      2  C   UNL     1      -1.158  -2.350   0.000  1.00  0.00    -0.043 A 
ATOM      3  C   UNL     1      -2.650  -2.199   0.000  1.00  0.00     0.005 A 
ATOM      4  C   UNL     1      -3.266  -0.832   0.000  1.00  0.00     0.012 A 
ATOM      5  C   UNL     1      -2.390   0.386   0.000  1.00  0.00     0.026 A 
ATOM      6  C   UNL     1      -0.898   0.235   0.000  1.00  0.00     0.038 A 
ATOM      7  C   UNL     1      -0.021   1.453   0.000  1.00  0.00     0.166 A 
ATOM      8  C   UNL     1       1.471   1.303   0.000  1.00  0.00     0.161 A 
ATOM      9  C   UNL     1       2.087  -0.065   0.000  1.00  0.00     0.001 A 
ATOM     10  C   UNL     1       1.211  -1.282   0.000  1.00  0.00     0.017 A 
ATOM     11  C   UNL     1      -0.281  -1.132   0.000  1.00  0.00    -0.010 A 
ENDROOT
BRANCH   5  12
ATOM     12  C   UNL     1      -3.006   1.753   0.000  1.00  0.00     0.260 C 
ATOM     13  O   UNL     1      -4.499   1.903   0.000  1.00  0.00    -0.298 OA
ENDBRANCH   5  12
BRANCH   9  14
ATOM     14  C   UNL     1       3.580  -0.215   0.000  1.00  0.00     0.017 C 
ATOM     15  C   UNL     1       4.196  -1.583   0.000  1.00  0.00     0.012 C 
ATOM     16  C   UNL     1       4.456   1.002   0.000  1.00  0.00     0.012 C 
ENDBRANCH   9  14
BRANCH   7  17
ATOM     17  O   UNL     1      -0.637   2.820   0.000  1.00  0.00    -0.504 OA
ATOM     18  H   UNL     1       0.000   0.000   0.000  1.00  0.00     0.293 HD
ENDBRANCH   7  17
BRANCH   8  19
ATOM     19  O   UNL     1       2.348   2.520   0.000  1.00  0.00    -0.504 OA
ATOM     20  H   UNL     1       0.000   0.000   0.000  1.00  0.00     0.293 HD
ENDBRANCH   8  19
TORSDOF 4
