REMARK SMILES C=CC[C@]12C=C(OC)C(=O)[C@](OC)([C@H](c3ccc4c(c3)OCO4)[C@H]1C)[C@H]2O
REMARK SMILES IDX 4 1 5 2 6 3 9 4 10 5 11 6 14 7 24 8 25 9 26 10 3 11 2 12
REMARK SMILES IDX 1 13 27 14 7 16 8 17 15 18 16 19 20 20 17 21 19 22 18 23
REMARK SMILES IDX 21 24 23 25 22 26 12 27 13 28
REMARK H PARENT 27 15
ROOT
ATOM      1  C   UNL     1       2.229   1.225   0.000  1.00  0.00     0.028 C 
ATOM      2  C   UNL     1       3.566   0.547   0.000  1.00  0.00     0.033 C 
ATOM      3  C   UNL     1       3.647  -0.951   0.000  1.00  0.00     0.161 C 
ATOM      4  C   UNL     1       2.390  -1.770   0.000  1.00  0.00     0.232 C 
ATOM      5  O   UNL     1       2.471  -3.268   0.000  1.00  0.00    -0.287 OA
ATOM      6  C   UNL     1       1.053  -1.091   0.000  1.00  0.00     0.167 C 
ATOM      7  C   UNL     1      -0.009  -0.032   0.000  1.00  0.00     0.066 C 
ATOM      8  C   UNL     1       0.669   1.305   0.000  1.00  0.00     0.010 C 
ATOM      9  C   UNL     1      -0.014   2.641   0.000  1.00  0.00     0.009 C 
ATOM     10  C   UNL     1       0.972   0.406   0.000  1.00  0.00     0.166 C 
ENDROOT
BRANCH   1  11
ATOM     11  C   UNL     1       2.148   2.723   0.000  1.00  0.00     0.041 C 
BRANCH  11  12
ATOM     12  C   UNL     1       3.405   3.542   0.000  1.00  0.00    -0.034 C 
ATOM     13  C   UNL     1       3.324   5.040   0.000  1.00  0.00     0.004 C 
ENDBRANCH  11  12
ENDBRANCH   1  11
BRANCH  10  14
ATOM     14  O   UNL     1      -0.366   1.085   0.000  1.00  0.00    -0.389 OA
ATOM     15  H   UNL     1       0.000   0.000   0.000  1.00  0.00     0.211 HD
ENDBRANCH  10  14
BRANCH   3  16
ATOM     16  O   UNL     1       4.985  -1.630   0.000  1.00  0.00    -0.493 OA
ATOM     17  C   UNL     1       5.066  -3.128   0.000  1.00  0.00     0.278 C 
ENDBRANCH   3  16
BRANCH   7  18
ATOM     18  C   UNL     1      -1.491  -0.269   0.000  1.00  0.00    -0.037 A 
ATOM     19  C   UNL     1      -2.026  -1.671   0.000  1.00  0.00     0.008 A 
ATOM     20  C   UNL     1      -2.437   0.895   0.000  1.00  0.00     0.054 A 
ATOM     21  C   UNL     1      -3.507  -1.908   0.000  1.00  0.00     0.051 A 
ATOM     22  C   UNL     1      -3.918   0.658   0.000  1.00  0.00     0.166 A 
ATOM     23  C   UNL     1      -4.453  -0.743   0.000  1.00  0.00     0.165 A 
ATOM     24  O   UNL     1      -5.085   1.600   0.000  1.00  0.00    -0.454 OA
ATOM     25  O   UNL     1      -5.951  -0.667   0.000  1.00  0.00    -0.454 OA
ATOM     26  C   UNL     1      -6.342   0.781   0.000  1.00  0.00     0.468 C 
ENDBRANCH   7  18
BRANCH   6  27
ATOM     27  O   UNL     1      -0.204  -1.910   0.000  1.00  0.00    -0.366 OA
ATOM     28  C   UNL     1      -0.123  -3.408   0.000  1.00  0.00     0.196 C 
ENDBRANCH   6  27
TORSDOF 6
