REMARK SMILES COc1ccc(/C=C/C(=O)O[C@H]2[C@H](O[C@@H]3OC=C(C(=O)O)[C@H]4C[C@H](O)[C@H](C)[C@@H]34)O[C@H](CO)[C@@H](O)[C@@H]2O)cc1OC
REMARK SMILES IDX 11 1 9 2 10 3 8 4 7 5 6 6 3 7 4 8 38 9 5 10 37 11 2 12 1 13
REMARK SMILES IDX 39 14 40 15 12 16 13 17 35 18 29 19 33 20 30 21 14 22 15 23
REMARK SMILES IDX 16 24 28 25 17 26 26 27 22 28 18 29 24 30 23 31 27 32 19 33
REMARK SMILES IDX 20 34 21 35 25 37 36 39 34 41 31 43 32 44
REMARK H PARENT 21 36 25 38 36 40 34 42 32 45
ROOT
ATOM      1  O   UNL     1      -1.476  -1.009   0.000  1.00  0.00    -0.451 OA
ENDROOT
BRANCH   1   2
ATOM      2  C   UNL     1      -0.397  -2.051   0.000  1.00  0.00     0.331 C 
ATOM      3  O   UNL     1      -0.760  -3.507   0.000  1.00  0.00    -0.247 OA
BRANCH   2   4
ATOM      4  C   UNL     1       1.045  -1.639   0.000  1.00  0.00     0.094 C 
BRANCH   4   5
ATOM      5  C   UNL     1       2.124  -2.681   0.000  1.00  0.00     0.016 C 
BRANCH   5   6
ATOM      6  C   UNL     1       3.566  -2.268   0.000  1.00  0.00    -0.021 A 
ATOM      7  C   UNL     1       6.450  -1.442   0.000  1.00  0.00     0.160 A 
ATOM      8  C   UNL     1       6.086  -2.897   0.000  1.00  0.00     0.051 A 
ATOM      9  C   UNL     1       5.371  -0.400   0.000  1.00  0.00     0.161 A 
ATOM     10  C   UNL     1       4.644  -3.310   0.000  1.00  0.00     0.012 A 
ATOM     11  C   UNL     1       3.929  -0.813   0.000  1.00  0.00     0.058 A 
BRANCH   7  12
ATOM     12  O   UNL     1       7.892  -1.029   0.000  1.00  0.00    -0.493 OA
ATOM     13  C   UNL     1       8.970  -2.071   0.000  1.00  0.00     0.278 C 
ENDBRANCH   7  12
BRANCH   9  14
ATOM     14  O   UNL     1       5.734   1.056   0.000  1.00  0.00    -0.493 OA
ATOM     15  C   UNL     1       7.176   1.469   0.000  1.00  0.00     0.278 C 
ENDBRANCH   9  14
ENDBRANCH   5   6
ENDBRANCH   4   5
ENDBRANCH   2   4
ENDBRANCH   1   2
BRANCH   1  16
ATOM     16  C   UNL     1      -2.918  -1.422   0.000  1.00  0.00     0.264 C 
ATOM     17  C   UNL     1      -3.996  -0.380   0.000  1.00  0.00     0.298 C 
ATOM     18  C   UNL     1      -3.281  -2.877   0.000  1.00  0.00     0.192 C 
ATOM     19  O   UNL     1      -5.439  -0.792   0.000  1.00  0.00    -0.340 OA
ATOM     20  C   UNL     1      -4.723  -3.290   0.000  1.00  0.00     0.178 C 
ATOM     21  C   UNL     1      -5.802  -2.248   0.000  1.00  0.00     0.178 C 
BRANCH  17  22
ATOM     22  O   UNL     1      -3.633   1.076   0.000  1.00  0.00    -0.309 OA
BRANCH  22  23
ATOM     23  C   UNL     1      -2.191   1.489   0.000  1.00  0.00     0.313 C 
ATOM     24  O   UNL     1      -1.112   0.446   0.000  1.00  0.00    -0.472 OA
ATOM     25  C   UNL     1      -1.828   2.944   0.000  1.00  0.00     0.072 C 
ATOM     26  C   UNL     1       0.330   0.859   0.000  1.00  0.00     0.202 C 
ATOM     27  C   UNL     1      -2.666   4.188   0.000  1.00  0.00     0.025 C 
ATOM     28  C   UNL     1      -0.386   3.357   0.000  1.00  0.00     0.042 C 
ATOM     29  C   UNL     1       0.693   2.314   0.000  1.00  0.00     0.075 C 
ATOM     30  C   UNL     1      -1.742   5.370   0.000  1.00  0.00     0.118 C 
ATOM     31  C   UNL     1      -0.333   4.856   0.000  1.00  0.00     0.041 C 
ATOM     32  C   UNL     1      -4.165   4.241   0.000  1.00  0.00     0.011 C 
BRANCH  29  33
ATOM     33  C   UNL     1       2.135   2.728   0.000  1.00  0.00     0.334 C 
ATOM     34  O   UNL     1       2.498   4.183   0.000  1.00  0.00    -0.247 OA
BRANCH  33  35
ATOM     35  O   UNL     1       3.214   1.685   0.000  1.00  0.00    -0.478 OA
ATOM     36  H   UNL     1       0.000   0.000   0.000  1.00  0.00     0.297 HD
ENDBRANCH  33  35
ENDBRANCH  29  33
BRANCH  30  37
ATOM     37  O   UNL     1      -2.155   6.812   0.000  1.00  0.00    -0.393 OA
ATOM     38  H   UNL     1       0.000   0.000   0.000  1.00  0.00     0.210 HD
ENDBRANCH  30  37
ENDBRANCH  22  23
ENDBRANCH  17  22
BRANCH  18  39
ATOM     39  O   UNL     1      -2.203  -3.920   0.000  1.00  0.00    -0.386 OA
ATOM     40  H   UNL     1       0.000   0.000   0.000  1.00  0.00     0.211 HD
ENDBRANCH  18  39
BRANCH  20  41
ATOM     41  O   UNL     1      -5.087  -4.745   0.000  1.00  0.00    -0.387 OA
ATOM     42  H   UNL     1       0.000   0.000   0.000  1.00  0.00     0.211 HD
ENDBRANCH  20  41
BRANCH  21  43
ATOM     43  C   UNL     1      -7.244  -2.661   0.000  1.00  0.00     0.191 C 
BRANCH  43  44
ATOM     44  O   UNL     1      -8.322  -1.618   0.000  1.00  0.00    -0.394 OA
ATOM     45  H   UNL     1       0.000   0.000   0.000  1.00  0.00     0.210 HD
ENDBRANCH  43  44
ENDBRANCH  21  43
ENDBRANCH   1  16
TORSDOF 16
