REMARK SMILES Cc1c(C)c2c(c(C)c1O)CC[C@@](C)(CCC[C@H](C)CCC[C@H](C)CCCC(C)C)O2
REMARK SMILES IDX 20 1 18 2 19 3 17 4 16 5 15 6 13 7 2 8 3 9 9 10 5 11 7 12
REMARK SMILES IDX 6 13 31 14 11 15 12 16 1 17 4 18 8 19 14 20 10 21 21 23
REMARK SMILES IDX 22 24 23 25 24 26 25 27 26 28 27 29 28 30 29 31 30 32
REMARK H PARENT 10 22
ROOT
ATOM      1  C   UNL     1       1.993   1.278   0.000  1.00  0.00     0.003 C 
ENDROOT
BRANCH   1   2
ATOM      2  C   UNL     1       1.819   2.768   0.000  1.00  0.00    -0.014 C 
ATOM      3  C   UNL     1       3.022   3.664   0.000  1.00  0.00     0.007 C 
BRANCH   2   4
ATOM      4  C   UNL     1       0.441   3.362   0.000  1.00  0.00     0.003 C 
BRANCH   4   5
ATOM      5  C   UNL     1      -0.762   2.467   0.000  1.00  0.00     0.004 C 
BRANCH   5   6
ATOM      6  C   UNL     1      -2.139   3.061   0.000  1.00  0.00     0.048 C 
BRANCH   6   7
ATOM      7  C   UNL     1      -3.342   2.165   0.000  1.00  0.00     0.107 C 
ATOM      8  C   UNL     1      -6.908  -1.615   0.000  1.00  0.00    -0.002 A 
ATOM      9  C   UNL     1      -6.562  -0.155   0.000  1.00  0.00    -0.002 A 
ATOM     10  C   UNL     1      -5.817  -2.644   0.000  1.00  0.00     0.122 A 
ATOM     11  C   UNL     1      -5.125   0.275   0.000  1.00  0.00     0.127 A 
ATOM     12  C   UNL     1      -4.380  -2.214   0.000  1.00  0.00    -0.002 A 
ATOM     13  C   UNL     1      -4.034  -0.754   0.000  1.00  0.00     0.001 A 
ATOM     14  O   UNL     1      -4.779   1.735   0.000  1.00  0.00    -0.487 OA
ATOM     15  C   UNL     1      -2.597  -0.324   0.000  1.00  0.00     0.044 C 
ATOM     16  C   UNL     1      -2.251   1.136   0.000  1.00  0.00     0.053 C 
ATOM     17  C   UNL     1      -8.345  -2.045   0.000  1.00  0.00     0.049 C 
ATOM     18  C   UNL     1      -7.653   0.874   0.000  1.00  0.00     0.049 C 
ATOM     19  C   UNL     1      -3.289  -3.243   0.000  1.00  0.00     0.049 C 
ATOM     20  C   UNL     1      -4.016   3.506   0.000  1.00  0.00     0.056 C 
BRANCH  10  21
ATOM     21  O   UNL     1      -6.163  -4.103   0.000  1.00  0.00    -0.507 OA
ATOM     22  H   UNL     1       0.000   0.000   0.000  1.00  0.00     0.293 HD
ENDBRANCH  10  21
ENDBRANCH   6   7
ENDBRANCH   5   6
ENDBRANCH   4   5
ENDBRANCH   2   4
ENDBRANCH   1   2
BRANCH   1  23
ATOM     23  C   UNL     1       3.370   0.684   0.000  1.00  0.00     0.001 C 
BRANCH  23  24
ATOM     24  C   UNL     1       3.544  -0.805   0.000  1.00  0.00     0.003 C 
BRANCH  24  25
ATOM     25  C   UNL     1       4.922  -1.399   0.000  1.00  0.00    -0.014 C 
ATOM     26  C   UNL     1       5.096  -2.889   0.000  1.00  0.00     0.007 C 
BRANCH  25  27
ATOM     27  C   UNL     1       6.125  -0.504   0.000  1.00  0.00     0.003 C 
BRANCH  27  28
ATOM     28  C   UNL     1       7.502  -1.098   0.000  1.00  0.00     0.001 C 
BRANCH  28  29
ATOM     29  C   UNL     1       8.705  -0.202   0.000  1.00  0.00     0.003 C 
BRANCH  29  30
ATOM     30  C   UNL     1      10.083  -0.796   0.000  1.00  0.00    -0.017 C 
ATOM     31  C   UNL     1      11.286   0.100   0.000  1.00  0.00     0.007 C 
ATOM     32  C   UNL     1      10.257  -2.286   0.000  1.00  0.00     0.007 C 
ENDBRANCH  29  30
ENDBRANCH  28  29
ENDBRANCH  27  28
ENDBRANCH  25  27
ENDBRANCH  24  25
ENDBRANCH  23  24
ENDBRANCH   1  23
TORSDOF 13
