REMARK SMILES CC(=O)O[C@@H]1C[C@@](C)(C(=O)[C@H]2COC(=O)C2)[C@@H]2CC(=O)O[C@@H]3C[C@H]4[C@H](C)C[C@H](O)C(=O)[C@]4(C)[C@@H]1[C@]23C
REMARK SMILES IDX 5 1 6 2 7 3 8 4 17 5 18 6 19 7 20 8 21 9 22 10 23 11 24 12
REMARK SMILES IDX 25 13 26 14 27 15 28 16 30 17 31 18 32 19 33 20 34 21 35 22
REMARK SMILES IDX 36 23 4 24 2 25 1 26 3 27 9 28 10 29 11 30 12 31 16 32 13 33
REMARK SMILES IDX 14 34 15 35 29 36
REMARK H PARENT 29 37
ROOT
ATOM      1  C   UNL     1      -0.524  -1.357   0.000  1.00  0.00     0.182 C 
ATOM      2  C   UNL     1       0.975  -1.420   0.000  1.00  0.00     0.060 C 
ATOM      3  C   UNL     1       1.779  -0.154   0.000  1.00  0.00     0.034 C 
ATOM      4  C   UNL     1       2.886  -1.166   0.000  1.00  0.00     0.020 C 
ATOM      5  C   UNL     1       1.084   1.176   0.000  1.00  0.00     0.024 C 
ATOM      6  C   UNL     1       1.889   2.442   0.000  1.00  0.00     0.128 C 
ATOM      7  C   UNL     1       1.194   3.772   0.000  1.00  0.00     0.306 C 
ATOM      8  O   UNL     1       1.998   5.038   0.000  1.00  0.00    -0.252 OA
ATOM      9  O   UNL     1      -0.305   3.835   0.000  1.00  0.00    -0.462 OA
ATOM     10  C   UNL     1      -1.109   2.569   0.000  1.00  0.00     0.183 C 
ATOM     11  C   UNL     1      -2.607   2.632   0.000  1.00  0.00     0.050 C 
ATOM     12  C   UNL     1      -3.412   1.366   0.000  1.00  0.00     0.009 C 
ATOM     13  C   UNL     1      -4.910   1.429   0.000  1.00  0.00    -0.007 C 
ATOM     14  C   UNL     1      -5.605   2.759   0.000  1.00  0.00     0.008 C 
ATOM     15  C   UNL     1      -5.715   0.163   0.000  1.00  0.00     0.043 C 
ATOM     16  C   UNL     1      -5.020  -1.167   0.000  1.00  0.00     0.181 C 
ATOM     17  C   UNL     1      -3.521  -1.230   0.000  1.00  0.00     0.167 C 
ATOM     18  O   UNL     1      -2.827  -2.559   0.000  1.00  0.00    -0.296 OA
ATOM     19  C   UNL     1      -2.717   0.036   0.000  1.00  0.00     0.039 C 
ATOM     20  C   UNL     1      -2.023  -1.293   0.000  1.00  0.00     0.020 C 
ATOM     21  C   UNL     1      -1.218  -0.027   0.000  1.00  0.00     0.054 C 
ATOM     22  C   UNL     1      -0.414   1.239   0.000  1.00  0.00     0.016 C 
ATOM     23  C   UNL     1      -1.913   1.302   0.000  1.00  0.00     0.016 C 
ENDROOT
BRANCH   1  24
ATOM     24  O   UNL     1      -1.328  -2.623   0.000  1.00  0.00    -0.462 OA
BRANCH  24  25
ATOM     25  C   UNL     1      -0.634  -3.952   0.000  1.00  0.00     0.302 C 
ATOM     26  C   UNL     1      -1.438  -5.219   0.000  1.00  0.00     0.139 C 
ATOM     27  O   UNL     1       0.865  -4.016   0.000  1.00  0.00    -0.253 OA
ENDBRANCH  24  25
ENDBRANCH   1  24
BRANCH   3  28
ATOM     28  C   UNL     1       2.968   0.761   0.000  1.00  0.00     0.146 C 
ATOM     29  O   UNL     1       2.770   2.248   0.000  1.00  0.00    -0.299 OA
BRANCH  28  30
ATOM     30  C   UNL     1       4.354   0.189   0.000  1.00  0.00     0.105 C 
ATOM     31  C   UNL     1       5.632   0.975   0.000  1.00  0.00     0.245 C 
ATOM     32  C   UNL     1       4.706  -1.269   0.000  1.00  0.00     0.137 C 
ATOM     33  O   UNL     1       6.774   0.002   0.000  1.00  0.00    -0.465 OA
ATOM     34  C   UNL     1       6.202  -1.385   0.000  1.00  0.00     0.306 C 
ATOM     35  O   UNL     1       6.987  -2.663   0.000  1.00  0.00    -0.252 OA
ENDBRANCH  28  30
ENDBRANCH   3  28
BRANCH  16  36
ATOM     36  O   UNL     1      -5.824  -2.433   0.000  1.00  0.00    -0.385 OA
ATOM     37  H   UNL     1       0.000   0.000   0.000  1.00  0.00     0.211 HD
ENDBRANCH  16  36
TORSDOF 5
