REMARK SMILES CC1(C)[C@@H](O)CC[C@]2(C)[C@H]3CC[C@@H]4C5=CCC[C@]5(C)CC[C@@]4(C)[C@]3(C)CC[C@@H]12
REMARK SMILES IDX 1 1 2 2 3 3 4 4 6 5 7 6 8 7 9 8 10 9 11 10 12 11 13 12 14 13
REMARK SMILES IDX 15 14 16 15 17 16 18 17 19 18 20 19 21 20 22 21 23 22 24 23
REMARK SMILES IDX 25 24 26 25 27 26 28 27 5 28
REMARK H PARENT 5 29
ROOT
ATOM      1  C   UNL     1       4.143   2.171   0.000  1.00  0.00     0.014 C 
ATOM      2  C   UNL     1       4.435   0.699   0.000  1.00  0.00    -0.006 C 
ATOM      3  C   UNL     1       5.833   1.242   0.000  1.00  0.00     0.014 C 
ATOM      4  C   UNL     1       5.213  -0.583   0.000  1.00  0.00     0.120 C 
ATOM      5  C   UNL     1       4.491  -1.898   0.000  1.00  0.00     0.033 C 
ATOM      6  C   UNL     1       2.991  -1.930   0.000  1.00  0.00     0.010 C 
ATOM      7  C   UNL     1       2.214  -0.648   0.000  1.00  0.00    -0.026 C 
ATOM      8  C   UNL     1       1.492  -1.962   0.000  1.00  0.00     0.012 C 
ATOM      9  C   UNL     1       0.714  -0.680   0.000  1.00  0.00     0.002 C 
ATOM     10  C   UNL     1      -0.008  -1.995   0.000  1.00  0.00     0.005 C 
ATOM     11  C   UNL     1      -1.508  -2.027   0.000  1.00  0.00     0.009 C 
ATOM     12  C   UNL     1      -2.285  -0.744   0.000  1.00  0.00     0.022 C 
ATOM     13  C   UNL     1      -3.785  -0.776   0.000  1.00  0.00    -0.065 C 
ATOM     14  C   UNL     1      -4.765  -1.912   0.000  1.00  0.00    -0.027 C 
ATOM     15  C   UNL     1      -6.148  -1.332   0.000  1.00  0.00     0.028 C 
ATOM     16  C   UNL     1      -6.023   0.163   0.000  1.00  0.00     0.015 C 
ATOM     17  C   UNL     1      -4.563   0.506   0.000  1.00  0.00    -0.011 C 
ATOM     18  C   UNL     1      -5.470   1.701   0.000  1.00  0.00     0.016 C 
ATOM     19  C   UNL     1      -3.841   1.821   0.000  1.00  0.00     0.012 C 
ATOM     20  C   UNL     1      -2.341   1.853   0.000  1.00  0.00     0.009 C 
ATOM     21  C   UNL     1      -1.563   0.571   0.000  1.00  0.00    -0.020 C 
ATOM     22  C   UNL     1      -0.786  -0.712   0.000  1.00  0.00     0.012 C 
ATOM     23  C   UNL     1      -0.064   0.603   0.000  1.00  0.00    -0.023 C 
ATOM     24  C   UNL     1      -0.841   1.885   0.000  1.00  0.00     0.012 C 
ATOM     25  C   UNL     1       0.658   1.918   0.000  1.00  0.00     0.008 C 
ATOM     26  C   UNL     1       2.158   1.950   0.000  1.00  0.00     0.005 C 
ATOM     27  C   UNL     1       2.936   0.667   0.000  1.00  0.00     0.003 C 
ENDROOT
BRANCH   4  28
ATOM     28  O   UNL     1       6.713  -0.551   0.000  1.00  0.00    -0.393 OA
ATOM     29  H   UNL     1       0.000   0.000   0.000  1.00  0.00     0.210 HD
ENDBRANCH   4  28
TORSDOF 1
