REMARK SMILES C=C1C=C[C@@H](C(C)C)C[C@@H]1OC(=O)Cc1ccccc1
REMARK SMILES IDX 11 1 10 2 2 3 3 4 4 5 9 6 5 7 1 8 6 9 7 10 8 11 12 12 13 13
REMARK SMILES IDX 14 14 15 15 16 16 20 17 17 18 19 19 18 20
REMARK H PARENT
ROOT
ATOM      1  O   UNL     1      -0.284  -1.779   0.000  1.00  0.00    -0.457 OA
ENDROOT
BRANCH   1   2
ATOM      2  C   UNL     1      -1.672  -1.210   0.000  1.00  0.00     0.206 C 
ATOM      3  C   UNL     1      -2.859  -2.127   0.000  1.00  0.00    -0.015 C 
ATOM      4  C   UNL     1      -4.246  -1.558   0.000  1.00  0.00     0.003 C 
ATOM      5  C   UNL     1      -4.447  -0.071   0.000  1.00  0.00    -0.023 C 
ATOM      6  C   UNL     1      -1.873   0.277   0.000  1.00  0.00     0.058 C 
ATOM      7  C   UNL     1      -3.260   0.846   0.000  1.00  0.00     0.018 C 
ATOM      8  C   UNL     1      -2.658  -3.614   0.000  1.00  0.00     0.016 C 
BRANCH   7   9
ATOM      9  C   UNL     1      -3.461   2.333   0.000  1.00  0.00    -0.010 C 
ATOM     10  C   UNL     1      -2.274   3.250   0.000  1.00  0.00     0.008 C 
ATOM     11  C   UNL     1      -4.849   2.902   0.000  1.00  0.00     0.008 C 
ENDBRANCH   7   9
ENDBRANCH   1   2
BRANCH   1  12
ATOM     12  C   UNL     1       0.903  -0.862   0.000  1.00  0.00     0.310 C 
ATOM     13  O   UNL     1       0.702   0.625   0.000  1.00  0.00    -0.252 OA
BRANCH  12  14
ATOM     14  C   UNL     1       2.291  -1.431   0.000  1.00  0.00     0.158 C 
BRANCH  14  15
ATOM     15  C   UNL     1       3.478  -0.514   0.000  1.00  0.00    -0.037 A 
ATOM     16  C   UNL     1       4.865  -1.083   0.000  1.00  0.00     0.004 A 
ATOM     17  C   UNL     1       3.277   0.973   0.000  1.00  0.00     0.004 A 
ATOM     18  C   UNL     1       6.052  -0.166   0.000  1.00  0.00     0.000 A 
ATOM     19  C   UNL     1       4.464   1.890   0.000  1.00  0.00     0.000 A 
ATOM     20  C   UNL     1       5.851   1.321   0.000  1.00  0.00     0.000 A 
ENDBRANCH  14  15
ENDBRANCH  12  14
ENDBRANCH   1  12
TORSDOF 5
