REMARK SMILES Cc1ccc(C)c2c1cc(C(C)(C)O)c1nc3ccccc3nc12
REMARK SMILES IDX 11 1 12 2 13 3 10 4 2 5 3 6 8 7 4 8 7 9 9 10 5 11 24 12
REMARK SMILES IDX 23 13 15 14 22 15 16 16 21 17 17 18 20 19 18 20 19 21 1 22
REMARK SMILES IDX 6 23 14 24
REMARK H PARENT 14 25
ROOT
ATOM      1  C   UNL     1      -0.495  -3.259   0.000  1.00  0.00     0.086 C 
ATOM      2  C   UNL     1       0.975  -2.958   0.000  1.00  0.00     0.047 C 
ATOM      3  C   UNL     1      -1.964  -3.559   0.000  1.00  0.00     0.047 C 
ENDROOT
BRANCH   1   4
ATOM      4  C   UNL     1      -0.795  -1.789   0.000  1.00  0.00     0.012 A 
ATOM      5  C   UNL     1      -3.941   0.630   0.000  1.00  0.00    -0.043 A 
ATOM      6  C   UNL     1      -4.241   2.100   0.000  1.00  0.00     0.004 A 
ATOM      7  C   UNL     1      -2.518   0.156   0.000  1.00  0.00    -0.012 A 
ATOM      8  C   UNL     1      -3.118   3.095   0.000  1.00  0.00     0.004 A 
ATOM      9  C   UNL     1      -1.395   1.150   0.000  1.00  0.00     0.013 A 
ATOM     10  C   UNL     1      -2.218  -1.314   0.000  1.00  0.00     0.018 A 
ATOM     11  C   UNL     1      -1.695   2.620   0.000  1.00  0.00    -0.041 A 
ATOM     12  C   UNL     1       0.028   0.675   0.000  1.00  0.00     0.098 A 
ATOM     13  N   UNL     1       1.151   1.670   0.000  1.00  0.00    -0.244 NA
ATOM     14  C   UNL     1       0.328  -0.794   0.000  1.00  0.00     0.096 A 
ATOM     15  C   UNL     1       2.573   1.195   0.000  1.00  0.00     0.089 A 
ATOM     16  N   UNL     1       1.751  -1.269   0.000  1.00  0.00    -0.244 NA
ATOM     17  C   UNL     1       3.696   2.190   0.000  1.00  0.00     0.030 A 
ATOM     18  C   UNL     1       2.873  -0.274   0.000  1.00  0.00     0.089 A 
ATOM     19  C   UNL     1       5.119   1.715   0.000  1.00  0.00     0.002 A 
ATOM     20  C   UNL     1       4.296  -0.749   0.000  1.00  0.00     0.030 A 
ATOM     21  C   UNL     1       5.419   0.245   0.000  1.00  0.00     0.002 A 
ATOM     22  C   UNL     1      -5.063  -0.364   0.000  1.00  0.00     0.045 C 
ATOM     23  C   UNL     1      -0.573   3.615   0.000  1.00  0.00     0.045 C 
ENDBRANCH   1   4
BRANCH   1  24
ATOM     24  O   UNL     1      -0.195  -4.728   0.000  1.00  0.00    -0.386 OA
ATOM     25  H   UNL     1       0.000   0.000   0.000  1.00  0.00     0.211 HD
ENDBRANCH   1  24
TORSDOF 2
