REMARK SMILES COc1cc2oc(-c3ccc(O)cc3)cc(=O)c2c(O)c1O[C@@H]1O[C@H](CO[C@@H]2O[C@@H](C)[C@H](O)[C@@H](O)[C@H]2O)[C@@H](O)[C@H](O)[C@H]1O
REMARK SMILES IDX 23 1 24 2 25 3 38 4 40 5 42 6 22 7 21 8 3 9 4 10 5 11 19 12
REMARK SMILES IDX 18 13 6 14 16 15 7 16 15 17 17 18 2 19 1 20 20 21 8 23 9 24
REMARK SMILES IDX 14 25 10 26 13 27 11 28 12 29 43 31 26 33 27 34 28 35 29 36
REMARK SMILES IDX 36 37 30 38 34 39 32 40 31 41 37 42 35 44 33 46 41 48 39 50
REMARK H PARENT 20 22 12 30 43 32 37 43 35 45 33 47 41 49 39 51
ROOT
ATOM      1  C   UNL     1      -1.165  -3.365   0.000  1.00  0.00     0.339 C 
ATOM      2  O   UNL     1      -1.627  -1.938   0.000  1.00  0.00    -0.332 OA
ATOM      3  C   UNL     1      -3.094  -1.625   0.000  1.00  0.00     0.180 C 
ATOM      4  C   UNL     1      -4.099  -2.739   0.000  1.00  0.00     0.177 C 
ATOM      5  C   UNL     1      -3.637  -4.166   0.000  1.00  0.00     0.180 C 
ATOM      6  C   UNL     1      -2.170  -4.479   0.000  1.00  0.00     0.214 C 
ENDROOT
BRANCH   1   7
ATOM      7  O   UNL     1       0.302  -3.679   0.000  1.00  0.00    -0.454 OA
BRANCH   7   8
ATOM      8  C   UNL     1       1.307  -2.565   0.000  1.00  0.00     0.207 A 
ATOM      9  C   UNL     1       0.845  -1.138   0.000  1.00  0.00     0.168 A 
ATOM     10  C   UNL     1       1.850  -0.024   0.000  1.00  0.00     0.098 A 
ATOM     11  C   UNL     1       3.317  -0.338   0.000  1.00  0.00     0.146 A 
ATOM     12  C   UNL     1       2.774  -2.878   0.000  1.00  0.00     0.177 A 
ATOM     13  C   UNL     1       3.779  -1.765   0.000  1.00  0.00     0.111 A 
ATOM     14  O   UNL     1       4.321   0.776   0.000  1.00  0.00    -0.456 OA
ATOM     15  C   UNL     1       5.245  -2.078   0.000  1.00  0.00     0.197 A 
ATOM     16  C   UNL     1       5.788   0.463   0.000  1.00  0.00     0.138 A 
ATOM     17  C   UNL     1       6.250  -0.965   0.000  1.00  0.00     0.100 A 
ATOM     18  O   UNL     1       5.708  -3.505   0.000  1.00  0.00    -0.289 OA
BRANCH   9  19
ATOM     19  O   UNL     1      -0.622  -0.825   0.000  1.00  0.00    -0.493 OA
ATOM     20  C   UNL     1      -1.084   0.602   0.000  1.00  0.00     0.278 C 
ENDBRANCH   9  19
BRANCH  12  21
ATOM     21  O   UNL     1       3.236  -4.306   0.000  1.00  0.00    -0.504 OA
ATOM     22  H   UNL     1       0.000   0.000   0.000  1.00  0.00     0.293 HD
ENDBRANCH  12  21
BRANCH  16  23
ATOM     23  C   UNL     1       6.793   1.576   0.000  1.00  0.00     0.018 A 
ATOM     24  C   UNL     1       8.260   1.263   0.000  1.00  0.00     0.016 A 
ATOM     25  C   UNL     1       6.331   3.003   0.000  1.00  0.00     0.016 A 
ATOM     26  C   UNL     1       9.265   2.377   0.000  1.00  0.00     0.047 A 
ATOM     27  C   UNL     1       7.336   4.117   0.000  1.00  0.00     0.047 A 
ATOM     28  C   UNL     1       8.803   3.804   0.000  1.00  0.00     0.115 A 
BRANCH  28  29
ATOM     29  O   UNL     1       9.808   4.917   0.000  1.00  0.00    -0.508 OA
ATOM     30  H   UNL     1       0.000   0.000   0.000  1.00  0.00     0.293 HD
ENDBRANCH  28  29
ENDBRANCH  16  23
ENDBRANCH   7   8
ENDBRANCH   1   7
BRANCH   6  31
ATOM     31  O   UNL     1      -1.708  -5.906   0.000  1.00  0.00    -0.384 OA
ATOM     32  H   UNL     1       0.000   0.000   0.000  1.00  0.00     0.211 HD
ENDBRANCH   6  31
BRANCH   3  33
ATOM     33  C   UNL     1      -3.556  -0.198   0.000  1.00  0.00     0.198 C 
BRANCH  33  34
ATOM     34  O   UNL     1      -5.023   0.115   0.000  1.00  0.00    -0.347 OA
BRANCH  34  35
ATOM     35  C   UNL     1      -5.485   1.542   0.000  1.00  0.00     0.281 C 
ATOM     36  O   UNL     1      -4.480   2.656   0.000  1.00  0.00    -0.344 OA
ATOM     37  C   UNL     1      -6.952   1.856   0.000  1.00  0.00     0.202 C 
ATOM     38  C   UNL     1      -4.942   4.083   0.000  1.00  0.00     0.150 C 
ATOM     39  C   UNL     1      -7.414   3.283   0.000  1.00  0.00     0.179 C 
ATOM     40  C   UNL     1      -6.409   4.396   0.000  1.00  0.00     0.174 C 
ATOM     41  C   UNL     1      -3.937   5.197   0.000  1.00  0.00     0.041 C 
BRANCH  37  42
ATOM     42  O   UNL     1      -7.957   0.742   0.000  1.00  0.00    -0.385 OA
ATOM     43  H   UNL     1       0.000   0.000   0.000  1.00  0.00     0.211 HD
ENDBRANCH  37  42
BRANCH  39  44
ATOM     44  O   UNL     1      -8.881   3.596   0.000  1.00  0.00    -0.387 OA
ATOM     45  H   UNL     1       0.000   0.000   0.000  1.00  0.00     0.211 HD
ENDBRANCH  39  44
BRANCH  40  46
ATOM     46  O   UNL     1      -6.871   5.824   0.000  1.00  0.00    -0.388 OA
ATOM     47  H   UNL     1       0.000   0.000   0.000  1.00  0.00     0.211 HD
ENDBRANCH  40  46
ENDBRANCH  34  35
ENDBRANCH  33  34
ENDBRANCH   3  33
BRANCH   5  48
ATOM     48  O   UNL     1      -4.641  -5.279   0.000  1.00  0.00    -0.387 OA
ATOM     49  H   UNL     1       0.000   0.000   0.000  1.00  0.00     0.211 HD
ENDBRANCH   5  48
BRANCH   4  50
ATOM     50  O   UNL     1      -5.566  -2.425   0.000  1.00  0.00    -0.387 OA
ATOM     51  H   UNL     1       0.000   0.000   0.000  1.00  0.00     0.211 HD
ENDBRANCH   4  50
TORSDOF 15
