REMARK SMILES COc1c(O)ccc2oc3cccc(O)c3c(=O)c12
REMARK SMILES IDX 3 1 4 2 6 3 7 4 8 5 19 6 17 7 18 8 16 9 14 10 13 11 12 12
REMARK SMILES IDX 11 13 10 14 9 15 2 16 1 17 5 18 15 20
REMARK H PARENT 5 19 15 21
ROOT
ATOM      1  C   UNL     1      -2.211  -0.407   0.000  1.00  0.00     0.175 A 
ATOM      2  C   UNL     1      -3.376   0.539   0.000  1.00  0.00     0.158 A 
ATOM      3  C   UNL     1      -3.139   2.020   0.000  1.00  0.00     0.054 A 
ATOM      4  C   UNL     1      -1.738   2.556   0.000  1.00  0.00     0.052 A 
ATOM      5  C   UNL     1      -0.574   1.611   0.000  1.00  0.00     0.142 A 
ATOM      6  C   UNL     1      -0.810   0.129   0.000  1.00  0.00     0.111 A 
ATOM      7  C   UNL     1       0.354  -0.816   0.000  1.00  0.00     0.208 A 
ATOM      8  O   UNL     1       0.118  -2.297   0.000  1.00  0.00    -0.288 OA
ATOM      9  C   UNL     1       1.755  -0.280   0.000  1.00  0.00     0.107 A 
ATOM     10  C   UNL     1       2.920  -1.225   0.000  1.00  0.00     0.130 A 
ATOM     11  C   UNL     1       4.321  -0.690   0.000  1.00  0.00     0.047 A 
ATOM     12  C   UNL     1       4.557   0.792   0.000  1.00  0.00     0.008 A 
ATOM     13  C   UNL     1       3.393   1.737   0.000  1.00  0.00     0.048 A 
ATOM     14  C   UNL     1       1.992   1.201   0.000  1.00  0.00     0.142 A 
ATOM     15  O   UNL     1       0.827   2.147   0.000  1.00  0.00    -0.456 OA
ENDROOT
BRANCH   1  16
ATOM     16  O   UNL     1      -2.447  -1.888   0.000  1.00  0.00    -0.492 OA
ATOM     17  C   UNL     1      -3.849  -2.424   0.000  1.00  0.00     0.278 C 
ENDBRANCH   1  16
BRANCH   2  18
ATOM     18  O   UNL     1      -4.777   0.003   0.000  1.00  0.00    -0.504 OA
ATOM     19  H   UNL     1       0.000   0.000   0.000  1.00  0.00     0.293 HD
ENDBRANCH   2  18
BRANCH  10  20
ATOM     20  O   UNL     1       2.684  -2.707   0.000  1.00  0.00    -0.507 OA
ATOM     21  H   UNL     1       0.000   0.000   0.000  1.00  0.00     0.293 HD
ENDBRANCH  10  20
TORSDOF 3
