REMARK SMILES O=C(O)C=CC=Cc1ccc2c(c1)OCO2
REMARK SMILES IDX 4 1 2 2 1 3 3 4 5 6 6 7 7 8 8 9 9 10 13 11 10 12 12 13 11 14
REMARK SMILES IDX 14 15 16 16 15 17
REMARK H PARENT 3 5
ROOT
ATOM      1  C   UNL     1       4.345  -0.583   0.000  1.00  0.00     0.093 C 
ENDROOT
BRANCH   1   2
ATOM      2  C   UNL     1       5.750  -0.058   0.000  1.00  0.00     0.328 C 
ATOM      3  O   UNL     1       5.997   1.422   0.000  1.00  0.00    -0.247 OA
BRANCH   2   4
ATOM      4  O   UNL     1       6.908  -1.011   0.000  1.00  0.00    -0.478 OA
ATOM      5  H   UNL     1       0.000   0.000   0.000  1.00  0.00     0.297 HD
ENDBRANCH   2   4
ENDBRANCH   1   2
BRANCH   1   6
ATOM      6  C   UNL     1       3.188   0.370   0.000  1.00  0.00     0.008 C 
BRANCH   6   7
ATOM      7  C   UNL     1       1.783  -0.155   0.000  1.00  0.00     0.001 C 
BRANCH   7   8
ATOM      8  C   UNL     1       0.625   0.798   0.000  1.00  0.00     0.008 C 
BRANCH   8   9
ATOM      9  C   UNL     1      -0.780   0.273   0.000  1.00  0.00    -0.022 A 
ATOM     10  C   UNL     1      -1.027  -1.207   0.000  1.00  0.00     0.012 A 
ATOM     11  C   UNL     1      -1.938   1.227   0.000  1.00  0.00     0.058 A 
ATOM     12  C   UNL     1      -2.432  -1.732   0.000  1.00  0.00     0.051 A 
ATOM     13  C   UNL     1      -3.342   0.701   0.000  1.00  0.00     0.166 A 
ATOM     14  C   UNL     1      -3.590  -0.779   0.000  1.00  0.00     0.165 A 
ATOM     15  O   UNL     1      -4.673   1.393   0.000  1.00  0.00    -0.454 OA
ATOM     16  O   UNL     1      -5.073  -1.001   0.000  1.00  0.00    -0.454 OA
ATOM     17  C   UNL     1      -5.743   0.341   0.000  1.00  0.00     0.468 C 
ENDBRANCH   8   9
ENDBRANCH   7   8
ENDBRANCH   6   7
ENDBRANCH   1   6
TORSDOF 6
