REMARK SMILES CC(=O)OC[C@H]1C=C[C@@H]2[C@H](C(=O)O)[C@@H](OC(C)=O)O[C@@H](O[C@@H]3O[C@H](COC(C)=O)[C@@H](OC(C)=O)[C@H](OC(C)=O)[C@H]3OC(C)=O)[C@@H]21
REMARK SMILES IDX 21 1 20 2 6 3 7 4 45 5 8 6 9 7 19 8 10 9 14 10 5 11 4 12
REMARK SMILES IDX 2 13 1 14 3 15 11 16 12 17 13 18 15 20 16 21 17 22 18 23
REMARK SMILES IDX 22 24 23 25 40 26 24 27 35 28 30 29 41 30 42 31 43 32 44 33
REMARK SMILES IDX 25 34 26 35 27 36 28 37 29 38 36 39 37 40 38 41 39 42 31 43
REMARK SMILES IDX 32 44 33 45 34 46
REMARK H PARENT 13 19
ROOT
ATOM      1  O   UNL     1       0.563  -0.986   0.000  1.00  0.00    -0.319 OA
ENDROOT
BRANCH   1   2
ATOM      2  C   UNL     1       1.727  -0.040   0.000  1.00  0.00     0.262 C 
ATOM      3  C   UNL     1       3.668  -1.975   0.000  1.00  0.00     0.058 C 
ATOM      4  C   UNL     1       5.166  -1.894   0.000  1.00  0.00    -0.024 C 
ATOM      5  C   UNL     1       3.128  -0.575   0.000  1.00  0.00     0.064 C 
ATOM      6  C   UNL     1       5.551  -0.444   0.000  1.00  0.00    -0.026 C 
ATOM      7  C   UNL     1       4.292   0.371   0.000  1.00  0.00     0.041 C 
ATOM      8  O   UNL     1       1.489   1.441   0.000  1.00  0.00    -0.312 OA
ATOM      9  C   UNL     1       4.055   1.852   0.000  1.00  0.00     0.175 C 
ATOM     10  C   UNL     1       2.654   2.387   0.000  1.00  0.00     0.327 C 
BRANCH   3  11
ATOM     11  C   UNL     1       2.853  -3.234   0.000  1.00  0.00     0.241 C 
BRANCH  11  12
ATOM     12  O   UNL     1       3.537  -4.570   0.000  1.00  0.00    -0.465 OA
BRANCH  12  13
ATOM     13  C   UNL     1       2.722  -5.829   0.000  1.00  0.00     0.302 C 
ATOM     14  C   UNL     1       3.405  -7.164   0.000  1.00  0.00     0.139 C 
ATOM     15  O   UNL     1       1.224  -5.753   0.000  1.00  0.00    -0.253 OA
ENDBRANCH  12  13
ENDBRANCH  11  12
ENDBRANCH   3  11
BRANCH   9  16
ATOM     16  C   UNL     1       5.219   2.798   0.000  1.00  0.00     0.313 C 
ATOM     17  O   UNL     1       6.620   2.263   0.000  1.00  0.00    -0.252 OA
BRANCH  16  18
ATOM     18  O   UNL     1       4.982   4.279   0.000  1.00  0.00    -0.481 OA
ATOM     19  H   UNL     1       0.000   0.000   0.000  1.00  0.00     0.296 HD
ENDBRANCH  16  18
ENDBRANCH   9  16
BRANCH  10  20
ATOM     20  O   UNL     1       2.416   3.868   0.000  1.00  0.00    -0.435 OA
BRANCH  20  21
ATOM     21  C   UNL     1       1.015   4.403   0.000  1.00  0.00     0.304 C 
ATOM     22  C   UNL     1       0.778   5.884   0.000  1.00  0.00     0.139 C 
ATOM     23  O   UNL     1      -0.149   3.457   0.000  1.00  0.00    -0.253 OA
ENDBRANCH  20  21
ENDBRANCH  10  20
ENDBRANCH   1   2
BRANCH   1  24
ATOM     24  C   UNL     1      -0.839  -0.451   0.000  1.00  0.00     0.298 C 
ATOM     25  O   UNL     1      -1.076   1.030   0.000  1.00  0.00    -0.338 OA
ATOM     26  C   UNL     1      -2.003  -1.397   0.000  1.00  0.00     0.277 C 
ATOM     27  C   UNL     1      -2.477   1.565   0.000  1.00  0.00     0.204 C 
ATOM     28  C   UNL     1      -3.404  -0.862   0.000  1.00  0.00     0.266 C 
ATOM     29  C   UNL     1      -3.641   0.619   0.000  1.00  0.00     0.253 C 
BRANCH  26  30
ATOM     30  O   UNL     1      -1.766  -2.878   0.000  1.00  0.00    -0.453 OA
BRANCH  30  31
ATOM     31  C   UNL     1      -0.364  -3.413   0.000  1.00  0.00     0.303 C 
ATOM     32  C   UNL     1      -0.127  -4.895   0.000  1.00  0.00     0.139 C 
ATOM     33  O   UNL     1       0.800  -2.467   0.000  1.00  0.00    -0.253 OA
ENDBRANCH  30  31
ENDBRANCH  26  30
BRANCH  27  34
ATOM     34  C   UNL     1      -2.715   3.046   0.000  1.00  0.00     0.269 C 
BRANCH  34  35
ATOM     35  O   UNL     1      -1.550   3.992   0.000  1.00  0.00    -0.463 OA
BRANCH  35  36
ATOM     36  C   UNL     1      -1.788   5.473   0.000  1.00  0.00     0.302 C 
ATOM     37  C   UNL     1      -0.624   6.419   0.000  1.00  0.00     0.139 C 
ATOM     38  O   UNL     1      -3.189   6.008   0.000  1.00  0.00    -0.253 OA
ENDBRANCH  35  36
ENDBRANCH  34  35
ENDBRANCH  27  34
BRANCH  28  39
ATOM     39  O   UNL     1      -4.568  -1.808   0.000  1.00  0.00    -0.454 OA
BRANCH  39  40
ATOM     40  C   UNL     1      -4.331  -3.289   0.000  1.00  0.00     0.303 C 
ATOM     41  C   UNL     1      -5.495  -4.235   0.000  1.00  0.00     0.139 C 
ATOM     42  O   UNL     1      -2.930  -3.824   0.000  1.00  0.00    -0.253 OA
ENDBRANCH  39  40
ENDBRANCH  28  39
BRANCH  29  43
ATOM     43  O   UNL     1      -5.043   1.154   0.000  1.00  0.00    -0.455 OA
BRANCH  43  44
ATOM     44  C   UNL     1      -6.207   0.208   0.000  1.00  0.00     0.303 C 
ATOM     45  C   UNL     1      -7.608   0.743   0.000  1.00  0.00     0.139 C 
ATOM     46  O   UNL     1      -5.970  -1.273   0.000  1.00  0.00    -0.253 OA
ENDBRANCH  43  44
ENDBRANCH  29  43
ENDBRANCH   1  24
TORSDOF 18
