REMARK SMILES CC1(C)C=Cc2c(c(-c3ccccc3)c(O)c3c(=O)c4cccc(O)c4[nH]c23)O1
REMARK SMILES IDX 1 1 2 2 3 3 4 4 5 5 6 6 7 7 29 8 8 9 15 10 17 11 28 12 27 13
REMARK SMILES IDX 26 14 24 15 23 16 22 17 21 18 20 19 18 20 19 21 9 23 10 24
REMARK SMILES IDX 14 25 11 26 13 27 12 28 16 29 25 31
REMARK H PARENT 27 22 16 30 25 32
ROOT
ATOM      1  C   UNL     1       4.080  -3.029   0.000  1.00  0.00     0.061 C 
ATOM      2  C   UNL     1       2.586  -3.164   0.000  1.00  0.00     0.122 C 
ATOM      3  C   UNL     1       2.978  -4.611   0.000  1.00  0.00     0.061 C 
ATOM      4  C   UNL     1       1.228  -3.801   0.000  1.00  0.00     0.021 C 
ATOM      5  C   UNL     1      -0.003  -2.945   0.000  1.00  0.00     0.014 C 
ATOM      6  C   UNL     1       0.123  -1.450   0.000  1.00  0.00     0.042 A 
ATOM      7  C   UNL     1       1.481  -0.812   0.000  1.00  0.00     0.141 A 
ATOM      8  O   UNL     1       2.712  -1.669   0.000  1.00  0.00    -0.482 OA
ATOM      9  C   UNL     1       1.607   0.682   0.000  1.00  0.00     0.067 A 
ATOM     10  C   UNL     1       0.376   1.539   0.000  1.00  0.00     0.140 A 
ATOM     11  C   UNL     1      -0.982   0.901   0.000  1.00  0.00     0.089 A 
ATOM     12  C   UNL     1      -1.108  -0.593   0.000  1.00  0.00     0.065 A 
ATOM     13  N   UNL     1      -2.466  -1.231   0.000  1.00  0.00    -0.351 N 
ATOM     14  C   UNL     1      -3.697  -0.374   0.000  1.00  0.00     0.092 A 
ATOM     15  C   UNL     1      -5.054  -1.012   0.000  1.00  0.00     0.139 A 
ATOM     16  C   UNL     1      -6.286  -0.155   0.000  1.00  0.00     0.048 A 
ATOM     17  C   UNL     1      -6.159   1.339   0.000  1.00  0.00     0.005 A 
ATOM     18  C   UNL     1      -4.802   1.977   0.000  1.00  0.00     0.014 A 
ATOM     19  C   UNL     1      -3.571   1.120   0.000  1.00  0.00     0.050 A 
ATOM     20  C   UNL     1      -2.213   1.758   0.000  1.00  0.00     0.201 A 
ATOM     21  O   UNL     1      -2.086   3.253   0.000  1.00  0.00    -0.288 OA
ATOM     22  H   UNL     1       0.000   0.000   0.000  1.00  0.00     0.167 HD
ENDROOT
BRANCH   9  23
ATOM     23  C   UNL     1       2.965   1.320   0.000  1.00  0.00    -0.011 A 
ATOM     24  C   UNL     1       4.196   0.464   0.000  1.00  0.00     0.009 A 
ATOM     25  C   UNL     1       3.091   2.815   0.000  1.00  0.00     0.009 A 
ATOM     26  C   UNL     1       5.554   1.101   0.000  1.00  0.00     0.001 A 
ATOM     27  C   UNL     1       4.449   3.453   0.000  1.00  0.00     0.001 A 
ATOM     28  C   UNL     1       5.680   2.596   0.000  1.00  0.00     0.000 A 
ENDBRANCH   9  23
BRANCH  10  29
ATOM     29  O   UNL     1       0.502   3.034   0.000  1.00  0.00    -0.506 OA
ATOM     30  H   UNL     1       0.000   0.000   0.000  1.00  0.00     0.293 HD
ENDBRANCH  10  29
BRANCH  15  31
ATOM     31  O   UNL     1      -5.181  -2.507   0.000  1.00  0.00    -0.506 OA
ATOM     32  H   UNL     1       0.000   0.000   0.000  1.00  0.00     0.293 HD
ENDBRANCH  15  31
TORSDOF 3
