REMARK SMILES O=c1c(O)c(-c2cc(O)c(O)c(O)c2)oc2cc(O)cc(O)c12
REMARK SMILES IDX 1 1 2 2 3 3 5 4 15 5 16 6 17 7 18 8 20 9 21 10 23 11 4 12
REMARK SMILES IDX 6 14 7 15 14 16 8 17 12 18 10 19 9 20 13 22 11 24 22 26
REMARK SMILES IDX 19 28
REMARK H PARENT 4 13 9 21 13 23 11 25 22 27 19 29
ROOT
ATOM      1  O   UNL     1       2.311   3.106   0.000  1.00  0.00    -0.285 OA
ATOM      2  C   UNL     1       1.742   1.718   0.000  1.00  0.00     0.238 A 
ATOM      3  C   UNL     1       0.255   1.516   0.000  1.00  0.00     0.208 A 
ATOM      4  C   UNL     1      -0.314   0.129   0.000  1.00  0.00     0.180 A 
ATOM      5  O   UNL     1       0.604  -1.058   0.000  1.00  0.00    -0.452 OA
ATOM      6  C   UNL     1       2.090  -0.857   0.000  1.00  0.00     0.146 A 
ATOM      7  C   UNL     1       3.008  -2.043   0.000  1.00  0.00     0.094 A 
ATOM      8  C   UNL     1       4.494  -1.842   0.000  1.00  0.00     0.123 A 
ATOM      9  C   UNL     1       5.063  -0.454   0.000  1.00  0.00     0.093 A 
ATOM     10  C   UNL     1       4.146   0.732   0.000  1.00  0.00     0.134 A 
ATOM     11  C   UNL     1       2.659   0.531   0.000  1.00  0.00     0.111 A 
ENDROOT
BRANCH   3  12
ATOM     12  O   UNL     1      -0.662   2.703   0.000  1.00  0.00    -0.502 OA
ATOM     13  H   UNL     1       0.000   0.000   0.000  1.00  0.00     0.293 HD
ENDBRANCH   3  12
BRANCH   4  14
ATOM     14  C   UNL     1      -1.800  -0.073   0.000  1.00  0.00     0.029 A 
ATOM     15  C   UNL     1      -2.717   1.114   0.000  1.00  0.00     0.062 A 
ATOM     16  C   UNL     1      -2.369  -1.461   0.000  1.00  0.00     0.062 A 
ATOM     17  C   UNL     1      -4.204   0.913   0.000  1.00  0.00     0.162 A 
ATOM     18  C   UNL     1      -3.855  -1.662   0.000  1.00  0.00     0.162 A 
ATOM     19  C   UNL     1      -4.773  -0.475   0.000  1.00  0.00     0.200 A 
BRANCH  17  20
ATOM     20  O   UNL     1      -5.122   2.099   0.000  1.00  0.00    -0.504 OA
ATOM     21  H   UNL     1       0.000   0.000   0.000  1.00  0.00     0.293 HD
ENDBRANCH  17  20
BRANCH  18  22
ATOM     22  O   UNL     1      -4.424  -3.050   0.000  1.00  0.00    -0.504 OA
ATOM     23  H   UNL     1       0.000   0.000   0.000  1.00  0.00     0.293 HD
ENDBRANCH  18  22
BRANCH  19  24
ATOM     24  O   UNL     1      -6.259  -0.676   0.000  1.00  0.00    -0.502 OA
ATOM     25  H   UNL     1       0.000   0.000   0.000  1.00  0.00     0.293 HD
ENDBRANCH  19  24
ENDBRANCH   4  14
BRANCH  10  26
ATOM     26  O   UNL     1       4.715   2.120   0.000  1.00  0.00    -0.507 OA
ATOM     27  H   UNL     1       0.000   0.000   0.000  1.00  0.00     0.293 HD
ENDBRANCH  10  26
BRANCH   8  28
ATOM     28  O   UNL     1       5.412  -3.029   0.000  1.00  0.00    -0.508 OA
ATOM     29  H   UNL     1       0.000   0.000   0.000  1.00  0.00     0.293 HD
ENDBRANCH   8  28
TORSDOF 7
