REMARK SMILES COc1c2c(nc3ccccc13)O[C@H](C(C)(C)O)[C@H]2O
REMARK SMILES IDX 3 1 4 2 5 3 6 4 7 5 8 6 9 7 10 8 11 9 12 10 13 11 14 12
REMARK SMILES IDX 19 13 2 14 1 15 20 16 15 18 16 19 17 20 18 21
REMARK H PARENT 20 17 18 22
ROOT
ATOM      1  C   UNL     1       1.034   0.991   0.000  1.00  0.00     0.139 A 
ATOM      2  C   UNL     1      -0.293   0.292   0.000  1.00  0.00     0.089 A 
ATOM      3  C   UNL     1      -0.352  -1.207   0.000  1.00  0.00     0.224 A 
ATOM      4  N   UNL     1       0.916  -2.007   0.000  1.00  0.00    -0.213 NA
ATOM      5  C   UNL     1       2.244  -1.309   0.000  1.00  0.00     0.078 A 
ATOM      6  C   UNL     1       3.512  -2.109   0.000  1.00  0.00     0.029 A 
ATOM      7  C   UNL     1       4.840  -1.411   0.000  1.00  0.00     0.002 A 
ATOM      8  C   UNL     1       4.899   0.088   0.000  1.00  0.00     0.001 A 
ATOM      9  C   UNL     1       3.630   0.889   0.000  1.00  0.00     0.014 A 
ATOM     10  C   UNL     1       2.303   0.190   0.000  1.00  0.00     0.043 A 
ATOM     11  O   UNL     1      -1.796  -1.614   0.000  1.00  0.00    -0.468 OA
ATOM     12  C   UNL     1      -2.629  -0.366   0.000  1.00  0.00     0.239 C 
ATOM     13  C   UNL     1      -1.701   0.811   0.000  1.00  0.00     0.197 C 
ENDROOT
BRANCH   1  14
ATOM     14  O   UNL     1       1.093   2.490   0.000  1.00  0.00    -0.495 OA
ATOM     15  C   UNL     1       2.421   3.188   0.000  1.00  0.00     0.278 C 
ENDBRANCH   1  14
BRANCH  13  16
ATOM     16  O   UNL     1      -2.108   2.255   0.000  1.00  0.00    -0.384 OA
ATOM     17  H   UNL     1       0.000   0.000   0.000  1.00  0.00     0.211 HD
ENDBRANCH  13  16
BRANCH  12  18
ATOM     18  C   UNL     1      -4.128  -0.308   0.000  1.00  0.00     0.099 C 
ATOM     19  C   UNL     1      -4.069   1.191   0.000  1.00  0.00     0.046 C 
ATOM     20  C   UNL     1      -4.187  -1.806   0.000  1.00  0.00     0.046 C 
BRANCH  18  21
ATOM     21  O   UNL     1      -5.627  -0.249   0.000  1.00  0.00    -0.386 OA
ATOM     22  H   UNL     1       0.000   0.000   0.000  1.00  0.00     0.211 HD
ENDBRANCH  18  21
ENDBRANCH  12  18
TORSDOF 4
