REMARK SMILES CC1O[C@H](C)C(O)c2cc3cc(O)cc(O[C@@H]4O[C@H](CO)[C@@H](O)C(O)[C@H]4O)c3c(O)c21
REMARK SMILES IDX 17 1 18 2 19 3 22 4 24 5 26 6 16 7 15 8 2 9 3 10 31 11 4 12
REMARK SMILES IDX 29 13 8 14 6 15 28 16 9 17 10 18 14 19 11 20 12 21 1 22 5 23
REMARK SMILES IDX 30 24 7 26 13 28 27 30 20 32 21 33 25 35 23 37
REMARK H PARENT 30 25 7 27 13 29 27 31 21 34 25 36 23 38
ROOT
ATOM      1  C   UNL     1       2.711   0.748   0.000  1.00  0.00     0.339 C 
ATOM      2  O   UNL     1       3.458  -0.553   0.000  1.00  0.00    -0.332 OA
ATOM      3  C   UNL     1       4.958  -0.556   0.000  1.00  0.00     0.179 C 
ATOM      4  C   UNL     1       5.711   0.741   0.000  1.00  0.00     0.177 C 
ATOM      5  C   UNL     1       4.964   2.042   0.000  1.00  0.00     0.180 C 
ATOM      6  C   UNL     1       3.464   2.046   0.000  1.00  0.00     0.214 C 
ENDROOT
BRANCH   1   7
ATOM      7  O   UNL     1       1.211   0.751   0.000  1.00  0.00    -0.461 OA
BRANCH   7   8
ATOM      8  C   UNL     1       0.458  -0.546   0.000  1.00  0.00     0.138 A 
ATOM      9  C   UNL     1      -4.036   2.062   0.000  1.00  0.00     0.150 C 
ATOM     10  O   UNL     1      -5.536   2.066   0.000  1.00  0.00    -0.368 OA
ATOM     11  C   UNL     1      -3.289   0.762   0.000  1.00  0.00     0.029 A 
ATOM     12  C   UNL     1      -6.289   0.769   0.000  1.00  0.00     0.149 C 
ATOM     13  C   UNL     1      -1.789   0.758   0.000  1.00  0.00     0.133 A 
ATOM     14  C   UNL     1      -4.042  -0.536   0.000  1.00  0.00    -0.007 A 
ATOM     15  C   UNL     1      -5.542  -0.532   0.000  1.00  0.00     0.173 C 
ATOM     16  C   UNL     1      -1.042  -0.542   0.000  1.00  0.00     0.066 A 
ATOM     17  C   UNL     1      -3.295  -1.836   0.000  1.00  0.00     0.016 A 
ATOM     18  C   UNL     1      -1.794  -1.840   0.000  1.00  0.00    -0.007 A 
ATOM     19  C   UNL     1       1.206  -1.847   0.000  1.00  0.00     0.093 A 
ATOM     20  C   UNL     1      -1.048  -3.140   0.000  1.00  0.00     0.055 A 
ATOM     21  C   UNL     1       0.453  -3.144   0.000  1.00  0.00     0.119 A 
ATOM     22  C   UNL     1      -3.283   3.360   0.000  1.00  0.00     0.044 C 
ATOM     23  C   UNL     1      -7.789   0.772   0.000  1.00  0.00     0.042 C 
BRANCH  13  24
ATOM     24  O   UNL     1      -1.036   2.056   0.000  1.00  0.00    -0.507 OA
ATOM     25  H   UNL     1       0.000   0.000   0.000  1.00  0.00     0.293 HD
ENDBRANCH  13  24
BRANCH  15  26
ATOM     26  O   UNL     1      -6.295  -1.829   0.000  1.00  0.00    -0.386 OA
ATOM     27  H   UNL     1       0.000   0.000   0.000  1.00  0.00     0.211 HD
ENDBRANCH  15  26
BRANCH  21  28
ATOM     28  O   UNL     1       1.200  -4.445   0.000  1.00  0.00    -0.508 OA
ATOM     29  H   UNL     1       0.000   0.000   0.000  1.00  0.00     0.293 HD
ENDBRANCH  21  28
ENDBRANCH   7   8
ENDBRANCH   1   7
BRANCH   6  30
ATOM     30  O   UNL     1       2.717   3.346   0.000  1.00  0.00    -0.384 OA
ATOM     31  H   UNL     1       0.000   0.000   0.000  1.00  0.00     0.211 HD
ENDBRANCH   6  30
BRANCH   3  32
ATOM     32  C   UNL     1       5.705  -1.857   0.000  1.00  0.00     0.191 C 
BRANCH  32  33
ATOM     33  O   UNL     1       4.952  -3.154   0.000  1.00  0.00    -0.394 OA
ATOM     34  H   UNL     1       0.000   0.000   0.000  1.00  0.00     0.210 HD
ENDBRANCH  32  33
ENDBRANCH   3  32
BRANCH   5  35
ATOM     35  O   UNL     1       5.717   3.339   0.000  1.00  0.00    -0.387 OA
ATOM     36  H   UNL     1       0.000   0.000   0.000  1.00  0.00     0.211 HD
ENDBRANCH   5  35
BRANCH   4  37
ATOM     37  O   UNL     1       7.211   0.738   0.000  1.00  0.00    -0.387 OA
ATOM     38  H   UNL     1       0.000   0.000   0.000  1.00  0.00     0.211 HD
ENDBRANCH   4  37
TORSDOF 10
