REMARK SMILES Cc1cc2c(c(C(C)C)c1O)CC[C@H]1[C@@](C)(C(=O)O)CCC[C@]21C
REMARK SMILES IDX 1 1 2 2 3 3 4 4 5 5 12 6 13 7 14 8 15 9 16 10 20 11 21 12
REMARK SMILES IDX 22 13 23 14 24 15 6 16 10 17 11 18 7 20 8 21 9 22 17 23
REMARK SMILES IDX 18 24 19 25
REMARK H PARENT 11 19 19 26
ROOT
ATOM      1  C   UNL     1      -3.817   3.046   0.000  1.00  0.00     0.048 C 
ATOM      2  C   UNL     1      -2.905   1.855   0.000  1.00  0.00    -0.009 A 
ATOM      3  C   UNL     1      -1.418   2.050   0.000  1.00  0.00     0.011 A 
ATOM      4  C   UNL     1      -0.506   0.859   0.000  1.00  0.00    -0.038 A 
ATOM      5  C   UNL     1      -1.081  -0.526   0.000  1.00  0.00    -0.037 A 
ATOM      6  C   UNL     1      -0.169  -1.717   0.000  1.00  0.00     0.036 C 
ATOM      7  C   UNL     1       1.318  -1.523   0.000  1.00  0.00     0.010 C 
ATOM      8  C   UNL     1       1.893  -0.138   0.000  1.00  0.00     0.017 C 
ATOM      9  C   UNL     1       3.381   0.057   0.000  1.00  0.00     0.069 C 
ATOM     10  C   UNL     1       4.845  -0.269   0.000  1.00  0.00     0.024 C 
ATOM     11  C   UNL     1       3.956   1.442   0.000  1.00  0.00     0.019 C 
ATOM     12  C   UNL     1       3.044   2.633   0.000  1.00  0.00     0.002 C 
ATOM     13  C   UNL     1       1.557   2.438   0.000  1.00  0.00     0.012 C 
ATOM     14  C   UNL     1       0.982   1.053   0.000  1.00  0.00    -0.003 C 
ATOM     15  C   UNL     1       0.070   2.244   0.000  1.00  0.00     0.017 C 
ATOM     16  C   UNL     1      -2.569  -0.721   0.000  1.00  0.00     0.000 A 
ATOM     17  C   UNL     1      -3.481   0.470   0.000  1.00  0.00     0.122 A 
ENDROOT
BRANCH  17  18
ATOM     18  O   UNL     1      -4.968   0.276   0.000  1.00  0.00    -0.507 OA
ATOM     19  H   UNL     1       0.000   0.000   0.000  1.00  0.00     0.293 HD
ENDBRANCH  17  18
BRANCH  16  20
ATOM     20  C   UNL     1      -3.144  -2.106   0.000  1.00  0.00     0.017 C 
ATOM     21  C   UNL     1      -4.631  -2.300   0.000  1.00  0.00     0.012 C 
ATOM     22  C   UNL     1      -2.232  -3.297   0.000  1.00  0.00     0.012 C 
ENDBRANCH  16  20
BRANCH   9  23
ATOM     23  C   UNL     1       3.314  -1.442   0.000  1.00  0.00     0.309 C 
ATOM     24  O   UNL     1       1.983  -2.133   0.000  1.00  0.00    -0.252 OA
BRANCH  23  25
ATOM     25  O   UNL     1       4.578  -2.249   0.000  1.00  0.00    -0.481 OA
ATOM     26  H   UNL     1       0.000   0.000   0.000  1.00  0.00     0.296 HD
ENDBRANCH  23  25
ENDBRANCH   9  23
TORSDOF 4
