REMARK SMILES COc1cc2ccc(=O)oc2c(O)c1O
REMARK SMILES IDX 3 1 4 2 5 3 11 4 10 5 8 6 9 7 7 8 6 9 12 10 14 11 2 12 1 13
REMARK SMILES IDX 15 14 13 16
REMARK H PARENT 15 15 13 17
ROOT
ATOM      1  C   UNL     1      -2.140   0.334   0.000  1.00  0.00     0.165 A 
ATOM      2  C   UNL     1      -1.065   1.381   0.000  1.00  0.00     0.062 A 
ATOM      3  C   UNL     1       0.379   0.973   0.000  1.00  0.00     0.025 A 
ATOM      4  C   UNL     1       0.747  -0.481   0.000  1.00  0.00     0.184 A 
ATOM      5  O   UNL     1       2.191  -0.889   0.000  1.00  0.00    -0.419 OA
ATOM      6  C   UNL     1       3.266   0.157   0.000  1.00  0.00     0.336 A 
ATOM      7  O   UNL     1       4.709  -0.250   0.000  1.00  0.00    -0.246 OA
ATOM      8  C   UNL     1       2.897   1.611   0.000  1.00  0.00     0.094 A 
ATOM      9  C   UNL     1       1.454   2.019   0.000  1.00  0.00     0.020 A 
ATOM     10  C   UNL     1      -0.328  -1.527   0.000  1.00  0.00     0.205 A 
ATOM     11  C   UNL     1      -1.771  -1.120   0.000  1.00  0.00     0.204 A 
ENDROOT
BRANCH   1  12
ATOM     12  O   UNL     1      -3.583   0.742   0.000  1.00  0.00    -0.493 OA
ATOM     13  C   UNL     1      -3.952   2.196   0.000  1.00  0.00     0.278 C 
ENDBRANCH   1  12
BRANCH  11  14
ATOM     14  O   UNL     1      -2.846  -2.166   0.000  1.00  0.00    -0.502 OA
ATOM     15  H   UNL     1       0.000   0.000   0.000  1.00  0.00     0.293 HD
ENDBRANCH  11  14
BRANCH  10  16
ATOM     16  O   UNL     1       0.041  -2.981   0.000  1.00  0.00    -0.502 OA
ATOM     17  H   UNL     1       0.000   0.000   0.000  1.00  0.00     0.293 HD
ENDBRANCH  10  16
TORSDOF 3
