REMARK SMILES CC(=O)OC[C@]12[C@H](OC(C)=O)[C@H](OC(C)=O)[C@@H]3C(OC(C)=O)[C@@]14O[C@@]3(C)COC(=O)c1cccnc1C(C)C(C)C(=O)O[C@@H]([C@H](O)[C@@H]2OC(C)=O)[C@]4(C)O
REMARK SMILES IDX 27 1 25 2 6 3 7 4 23 5 47 6 12 7 18 8 24 9 52 10 45 11 17 12
REMARK SMILES IDX 44 13 53 14 26 15 5 16 4 17 2 18 1 19 3 20 8 21 9 22 10 23
REMARK SMILES IDX 11 24 48 25 49 26 50 27 51 28 13 29 14 30 15 31 16 32 19 33
REMARK SMILES IDX 20 34 21 35 22 36 54 37 46 39 43 41 41 42 42 43 39 44 40 45
REMARK SMILES IDX 28 47 29 48 30 49 31 50 32 51 36 52 33 53 35 54 34 55 37 56
REMARK SMILES IDX 38 57
REMARK H PARENT 54 38 46 40
REMARK Flexibility Score:   60.900
ROOT
ATOM      1  C   UNL     1       2.110  -3.108   0.000  1.00  0.00     0.269 C 
ENDROOT
BRANCH   1   2
ATOM      2  C   UNL     1       0.792  -2.392   0.000  1.00  0.00     0.111 C 
ATOM      3  C   UNL     1      -1.866   0.245   0.000  1.00  0.00     0.120 C 
ATOM      4  C   UNL     1      -2.773  -0.950   0.000  1.00  0.00     0.234 C 
ATOM      5  C   UNL     1      -0.347   0.302   0.000  1.00  0.00     0.155 C 
ATOM      6  C   UNL     1      -2.179   1.712   0.000  1.00  0.00     0.225 C 
ATOM      7  C   UNL     1      -2.191  -2.333   0.000  1.00  0.00     0.228 C 
ATOM      8  C   UNL     1      -1.287  -1.139   0.000  1.00  0.00     0.222 C 
ATOM      9  O   UNL     1      -0.085  -1.175   0.000  1.00  0.00    -0.357 OA
ATOM     10  C   UNL     1       0.058   1.746   0.000  1.00  0.00     0.135 C 
ATOM     11  C   UNL     1      -1.065   2.716   0.000  1.00  0.00     0.200 C 
ATOM     12  C   UNL     1      -0.703  -2.520   0.000  1.00  0.00     0.113 C 
ATOM     13  C   UNL     1       1.049   2.872   0.000  1.00  0.00     0.243 C 
ATOM     14  C   UNL     1      -1.435   1.596   0.000  1.00  0.00     0.049 C 
ATOM     15  C   UNL     1      -0.200  -3.518   0.000  1.00  0.00     0.047 C 
BRANCH   3  16
ATOM     16  C   UNL     1      -2.448   1.627   0.000  1.00  0.00     0.251 C 
BRANCH  16  17
ATOM     17  O   UNL     1      -3.936   1.815   0.000  1.00  0.00    -0.465 OA
BRANCH  17  18
ATOM     18  C   UNL     1      -4.518   3.197   0.000  1.00  0.00     0.302 C 
ATOM     19  C   UNL     1      -6.006   3.385   0.000  1.00  0.00     0.139 C 
ATOM     20  O   UNL     1      -3.764   4.494   0.000  1.00  0.00    -0.253 OA
ENDBRANCH  17  18
ENDBRANCH  16  17
ENDBRANCH   3  16
BRANCH   4  21
ATOM     21  O   UNL     1      -4.261  -0.763   0.000  1.00  0.00    -0.458 OA
BRANCH  21  22
ATOM     22  C   UNL     1      -5.167  -1.958   0.000  1.00  0.00     0.303 C 
ATOM     23  C   UNL     1      -6.656  -1.770   0.000  1.00  0.00     0.139 C 
ATOM     24  O   UNL     1      -4.586  -3.341   0.000  1.00  0.00    -0.253 OA
ENDBRANCH  21  22
ENDBRANCH   4  21
BRANCH   6  25
ATOM     25  O   UNL     1      -3.606   2.175   0.000  1.00  0.00    -0.459 OA
BRANCH  25  26
ATOM     26  C   UNL     1      -3.918   3.642   0.000  1.00  0.00     0.303 C 
ATOM     27  C   UNL     1      -5.345   4.105   0.000  1.00  0.00     0.139 C 
ATOM     28  O   UNL     1      -2.690   4.503   0.000  1.00  0.00    -0.253 OA
ENDBRANCH  25  26
ENDBRANCH   6  25
BRANCH   7  29
ATOM     29  O   UNL     1      -3.097  -3.528   0.000  1.00  0.00    -0.458 OA
BRANCH  29  30
ATOM     30  C   UNL     1      -2.516  -4.911   0.000  1.00  0.00     0.303 C 
ATOM     31  C   UNL     1      -3.422  -6.106   0.000  1.00  0.00     0.139 C 
ATOM     32  O   UNL     1      -1.027  -5.098   0.000  1.00  0.00    -0.253 OA
ENDBRANCH  29  30
ENDBRANCH   7  29
BRANCH   8  33
ATOM     33  O   UNL     1      -2.748  -0.799   0.000  1.00  0.00    -0.459 OA
BRANCH  33  34
ATOM     34  C   UNL     1      -3.772  -1.895   0.000  1.00  0.00     0.303 C 
ATOM     35  C   UNL     1      -5.272  -1.919   0.000  1.00  0.00     0.139 C 
ATOM     36  O   UNL     1      -3.696  -3.393   0.000  1.00  0.00    -0.253 OA
ENDBRANCH  33  34
ENDBRANCH   8  33
BRANCH  10  37
ATOM     37  O   UNL     1      -0.930   2.875   0.000  1.00  0.00    -0.383 OA
ATOM     38  H   UNL     1       0.000   0.000   0.000  1.00  0.00     0.211 HD
ENDBRANCH  10  37
BRANCH  11  39
ATOM     39  O   UNL     1      -1.377   4.183   0.000  1.00  0.00    -0.385 OA
ATOM     40  H   UNL     1       0.000   0.000   0.000  1.00  0.00     0.211 HD
ENDBRANCH  11  39
BRANCH  13  41
ATOM     41  O   UNL     1       2.431   3.456   0.000  1.00  0.00    -0.456 OA
BRANCH  41  42
ATOM     42  C   UNL     1       3.929   3.383   0.000  1.00  0.00     0.309 C 
ATOM     43  O   UNL     1       4.334   4.827   0.000  1.00  0.00    -0.252 OA
BRANCH  42  44
ATOM     44  C   UNL     1       5.247   2.667   0.000  1.00  0.00     0.105 CG0
ATOM     45  C   UNL     1       6.238   3.793   0.000  1.00  0.00     0.020 C 
ATOM     46  G   UNL     1       6.124   1.450   0.000  1.00  0.00     0.000 G0
ENDBRANCH  42  44
ENDBRANCH  41  42
ENDBRANCH  13  41
ENDBRANCH   1   2
BRANCH   1  47
ATOM     47  O   UNL     1       3.608  -3.181   0.000  1.00  0.00    -0.459 OA
BRANCH  47  48
ATOM     48  C   UNL     1       4.990  -2.597   0.000  1.00  0.00     0.340 C 
ATOM     49  O   UNL     1       5.867  -3.814   0.000  1.00  0.00    -0.246 OA
BRANCH  48  50
ATOM     50  C   UNL     1       5.981  -1.471   0.000  1.00  0.00     0.081 A 
ATOM     51  C   UNL     1       7.030  -2.544   0.000  1.00  0.00     0.019 A 
ATOM     52  C   UNL     1       6.386  -0.027   0.000  1.00  0.00     0.058 A 
ATOM     53  C   UNL     1       8.483  -2.172   0.000  1.00  0.00     0.021 A 
ATOM     54  N   UNL     1       7.839   0.345   0.000  1.00  0.00    -0.260 NA
ATOM     55  C   UNL     1       8.887  -0.728   0.000  1.00  0.00     0.111 A 
BRANCH  52  56
ATOM     56  C   UNL     1       6.124   1.450   0.000  1.00  0.00     0.050 CG0
ATOM     57  C   UNL     1       7.505   2.034   0.000  1.00  0.00     0.015 C 
ATOM     58  G   UNL     1       5.247   2.667   0.000  1.00  0.00     0.000 G0
ENDBRANCH  52  56
ENDBRANCH  48  50
ENDBRANCH  47  48
ENDBRANCH   1  47
TORSDOF 13
