REMARK SMILES COc1ccc(-c2cc(=O)c3c(O)c(C)c(OC)c(C)c3o2)cc1
REMARK SMILES IDX 7 1 8 2 9 3 10 4 11 5 12 6 14 7 15 8 16 9 19 10 20 11 21 12
REMARK SMILES IDX 22 13 6 14 3 15 4 16 24 17 5 18 23 19 2 20 1 21 13 22 17 24
REMARK SMILES IDX 18 25
REMARK H PARENT 13 23
ROOT
ATOM      1  C   UNL     1      -1.130  -0.530   0.000  1.00  0.00     0.138 A 
ATOM      2  C   UNL     1      -0.597  -1.932   0.000  1.00  0.00     0.100 A 
ATOM      3  C   UNL     1       0.884  -2.171   0.000  1.00  0.00     0.197 A 
ATOM      4  O   UNL     1       1.417  -3.574   0.000  1.00  0.00    -0.289 OA
ATOM      5  C   UNL     1       1.831  -1.009   0.000  1.00  0.00     0.107 A 
ATOM      6  C   UNL     1       3.312  -1.248   0.000  1.00  0.00     0.137 A 
ATOM      7  C   UNL     1       4.260  -0.085   0.000  1.00  0.00     0.034 A 
ATOM      8  C   UNL     1       5.740  -0.324   0.000  1.00  0.00     0.052 C 
ATOM      9  C   UNL     1       3.727   1.317   0.000  1.00  0.00     0.132 A 
ATOM     10  C   UNL     1       2.246   1.556   0.000  1.00  0.00     0.035 A 
ATOM     11  C   UNL     1       1.712   2.958   0.000  1.00  0.00     0.052 C 
ATOM     12  C   UNL     1       1.298   0.393   0.000  1.00  0.00     0.149 A 
ATOM     13  O   UNL     1      -0.183   0.633   0.000  1.00  0.00    -0.455 OA
ENDROOT
BRANCH   1  14
ATOM     14  C   UNL     1      -2.611  -0.291   0.000  1.00  0.00     0.018 A 
ATOM     15  C   UNL     1      -5.573   0.188   0.000  1.00  0.00     0.118 A 
ATOM     16  C   UNL     1      -4.625   1.350   0.000  1.00  0.00     0.047 A 
ATOM     17  C   UNL     1      -5.040  -1.214   0.000  1.00  0.00     0.047 A 
ATOM     18  C   UNL     1      -3.144   1.111   0.000  1.00  0.00     0.016 A 
ATOM     19  C   UNL     1      -3.559  -1.454   0.000  1.00  0.00     0.016 A 
BRANCH  15  20
ATOM     20  O   UNL     1      -7.053   0.427   0.000  1.00  0.00    -0.497 OA
ATOM     21  C   UNL     1      -7.587   1.829   0.000  1.00  0.00     0.278 C 
ENDBRANCH  15  20
ENDBRANCH   1  14
BRANCH   6  22
ATOM     22  O   UNL     1       3.845  -2.650   0.000  1.00  0.00    -0.507 OA
ATOM     23  H   UNL     1       0.000   0.000   0.000  1.00  0.00     0.293 HD
ENDBRANCH   6  22
BRANCH   9  24
ATOM     24  O   UNL     1       4.674   2.480   0.000  1.00  0.00    -0.496 OA
ATOM     25  C   UNL     1       6.155   2.240   0.000  1.00  0.00     0.278 C 
ENDBRANCH   9  24
TORSDOF 4
