REMARK SMILES COC(=O)C1=COC(O)[C@@H]2[C@H](C)OC(=O)C[C@H]12
REMARK SMILES IDX 5 1 6 2 7 3 8 4 10 5 11 6 12 7 13 8 14 9 15 10 16 11 17 12
REMARK SMILES IDX 3 13 4 14 2 15 1 16 9 17
REMARK H PARENT 9 18
ROOT
ATOM      1  C   UNL     1      -1.299   0.574   0.000  1.00  0.00     0.076 C 
ATOM      2  C   UNL     1      -1.299   2.074   0.000  1.00  0.00     0.202 C 
ATOM      3  O   UNL     1       0.000   2.824   0.000  1.00  0.00    -0.472 OA
ATOM      4  C   UNL     1       1.299   2.074   0.000  1.00  0.00     0.310 C 
ATOM      5  C   UNL     1       1.299   0.574   0.000  1.00  0.00     0.107 C 
ATOM      6  C   UNL     1       2.598  -0.176   0.000  1.00  0.00     0.183 C 
ATOM      7  C   UNL     1       3.897   0.574   0.000  1.00  0.00     0.053 C 
ATOM      8  O   UNL     1       2.598  -1.677   0.000  1.00  0.00    -0.462 OA
ATOM      9  C   UNL     1       1.299  -2.426   0.000  1.00  0.00     0.306 C 
ATOM     10  O   UNL     1       1.299  -3.926   0.000  1.00  0.00    -0.252 OA
ATOM     11  C   UNL     1      -0.000  -1.677   0.000  1.00  0.00     0.132 C 
ATOM     12  C   UNL     1      -0.000  -0.176   0.000  1.00  0.00     0.054 C 
ENDROOT
BRANCH   1  13
ATOM     13  C   UNL     1      -2.598  -0.176   0.000  1.00  0.00     0.337 C 
ATOM     14  O   UNL     1      -2.598  -1.677   0.000  1.00  0.00    -0.246 OA
BRANCH  13  15
ATOM     15  O   UNL     1      -3.897   0.574   0.000  1.00  0.00    -0.466 OA
ATOM     16  C   UNL     1      -5.196  -0.176   0.000  1.00  0.00     0.282 C 
ENDBRANCH  13  15
ENDBRANCH   1  13
BRANCH   4  17
ATOM     17  O   UNL     1       2.598   2.824   0.000  1.00  0.00    -0.358 OA
ATOM     18  H   UNL     1       0.000   0.000   0.000  1.00  0.00     0.215 HD
ENDBRANCH   4  17
TORSDOF 3
