REMARK SMILES CC1(C)C2CC(=O)[C@]3(C)C(CC[C@@]4(C)[C@H](c5ccoc5)OC(=O)[C@H]5O[C@]543)[C@@]2(C)CC[C@@H]1O
REMARK SMILES IDX 1 1 2 2 3 3 4 4 5 5 6 6 7 7 8 8 9 9 10 10 11 11 12 12 13 13
REMARK SMILES IDX 14 14 15 15 21 16 22 17 23 18 24 19 25 20 26 21 27 22 28 23
REMARK SMILES IDX 29 24 30 25 31 26 32 27 16 29 20 30 17 31 19 32 18 33
REMARK H PARENT 32 28
ROOT
ATOM      1  C   UNL     1      -6.288  -0.261   0.000  1.00  0.00     0.014 C 
ATOM      2  C   UNL     1      -4.809  -0.011   0.000  1.00  0.00    -0.006 C 
ATOM      3  C   UNL     1      -4.821  -1.511   0.000  1.00  0.00     0.014 C 
ATOM      4  C   UNL     1      -3.334  -0.283   0.000  1.00  0.00     0.011 C 
ATOM      5  C   UNL     1      -2.832  -1.696   0.000  1.00  0.00     0.081 C 
ATOM      6  C   UNL     1      -1.356  -1.968   0.000  1.00  0.00     0.142 C 
ATOM      7  O   UNL     1      -0.854  -3.381   0.000  1.00  0.00    -0.299 OA
ATOM      8  C   UNL     1      -0.384  -0.826   0.000  1.00  0.00     0.062 C 
ATOM      9  C   UNL     1      -1.859  -0.554   0.000  1.00  0.00     0.023 C 
ATOM     10  C   UNL     1      -0.886   0.587   0.000  1.00  0.00     0.012 C 
ATOM     11  C   UNL     1       0.087   1.729   0.000  1.00  0.00     0.006 C 
ATOM     12  C   UNL     1       1.562   1.458   0.000  1.00  0.00     0.014 C 
ATOM     13  C   UNL     1       2.064   0.044   0.000  1.00  0.00     0.042 C 
ATOM     14  C   UNL     1       3.037   1.186   0.000  1.00  0.00     0.019 C 
ATOM     15  C   UNL     1       3.539  -0.227   0.000  1.00  0.00     0.219 C 
ATOM     16  O   UNL     1       4.042  -1.641   0.000  1.00  0.00    -0.455 OA
ATOM     17  C   UNL     1       3.069  -2.782   0.000  1.00  0.00     0.339 C 
ATOM     18  O   UNL     1       3.572  -4.196   0.000  1.00  0.00    -0.249 OA
ATOM     19  C   UNL     1       1.594  -2.511   0.000  1.00  0.00     0.262 C 
ATOM     20  O   UNL     1       0.119  -2.239   0.000  1.00  0.00    -0.352 OA
ATOM     21  C   UNL     1       1.091  -1.097   0.000  1.00  0.00     0.128 C 
ATOM     22  C   UNL     1      -2.361   0.859   0.000  1.00  0.00    -0.025 C 
ATOM     23  C   UNL     1      -1.389   2.001   0.000  1.00  0.00     0.012 C 
ATOM     24  C   UNL     1      -2.864   2.272   0.000  1.00  0.00     0.010 C 
ATOM     25  C   UNL     1      -4.339   2.544   0.000  1.00  0.00     0.033 C 
ATOM     26  C   UNL     1      -5.312   1.402   0.000  1.00  0.00     0.120 C 
ENDROOT
BRANCH  26  27
ATOM     27  O   UNL     1      -6.787   1.673   0.000  1.00  0.00    -0.393 OA
ATOM     28  H   UNL     1       0.000   0.000   0.000  1.00  0.00     0.210 HD
ENDBRANCH  26  27
BRANCH  15  29
ATOM     29  C   UNL     1       4.512   0.915   0.000  1.00  0.00     0.031 A 
ATOM     30  C   UNL     1       4.160   2.373   0.000  1.00  0.00     0.202 A 
ATOM     31  C   UNL     1       6.008   0.799   0.000  1.00  0.00     0.049 A 
ATOM     32  O   UNL     1       5.438   3.158   0.000  1.00  0.00    -0.472 OA
ATOM     33  C   UNL     1       6.580   2.185   0.000  1.00  0.00     0.195 A 
ENDBRANCH  15  29
TORSDOF 2
