REMARK SMILES C=C[C@]1(C)CC2CC[C@@]34O[C@]3(C=CC(=O)C4(C)C)[C@]2(C)[C@@H](O)C1
REMARK SMILES IDX 3 1 4 2 5 3 6 4 7 5 8 6 9 7 10 8 11 9 12 10 13 11 14 12
REMARK SMILES IDX 15 13 16 14 17 15 18 16 19 17 20 18 21 19 23 20 2 21 1 22
REMARK SMILES IDX 22 23
REMARK H PARENT 22 24
ROOT
ATOM      1  C   UNL     1      -3.739  -0.207   0.000  1.00  0.00    -0.012 C 
ATOM      2  C   UNL     1      -4.927  -1.122   0.000  1.00  0.00     0.016 C 
ATOM      3  C   UNL     1      -2.935   1.060   0.000  1.00  0.00     0.015 C 
ATOM      4  C   UNL     1      -1.436   0.998   0.000  1.00  0.00     0.002 C 
ATOM      5  C   UNL     1      -0.633   2.264   0.000  1.00  0.00     0.007 C 
ATOM      6  C   UNL     1       0.866   2.202   0.000  1.00  0.00     0.040 C 
ATOM      7  C   UNL     1       1.561   0.873   0.000  1.00  0.00     0.115 C 
ATOM      8  O   UNL     1       2.256  -0.456   0.000  1.00  0.00    -0.356 OA
ATOM      9  C   UNL     1       0.758  -0.394   0.000  1.00  0.00     0.126 C 
ATOM     10  C   UNL     1       1.453  -1.723   0.000  1.00  0.00     0.015 C 
ATOM     11  C   UNL     1       2.952  -1.786   0.000  1.00  0.00     0.047 C 
ATOM     12  C   UNL     1       3.755  -0.519   0.000  1.00  0.00     0.164 C 
ATOM     13  O   UNL     1       5.254  -0.581   0.000  1.00  0.00    -0.294 OA
ATOM     14  C   UNL     1       3.060   0.810   0.000  1.00  0.00     0.060 C 
ATOM     15  C   UNL     1       2.861   2.297   0.000  1.00  0.00     0.023 C 
ATOM     16  C   UNL     1       4.489   1.264   0.000  1.00  0.00     0.023 C 
ATOM     17  C   UNL     1      -0.741  -0.332   0.000  1.00  0.00     0.032 C 
ATOM     18  C   UNL     1      -0.046  -1.661   0.000  1.00  0.00     0.018 C 
ATOM     19  C   UNL     1      -1.544  -1.598   0.000  1.00  0.00     0.124 C 
ATOM     20  C   UNL     1      -3.043  -1.536   0.000  1.00  0.00     0.043 C 
ENDROOT
BRANCH   1  21
ATOM     21  C   UNL     1      -4.846   0.804   0.000  1.00  0.00    -0.028 C 
ATOM     22  C   UNL     1      -4.525   2.269   0.000  1.00  0.00     0.004 C 
ENDBRANCH   1  21
BRANCH  19  23
ATOM     23  O   UNL     1      -0.849  -2.927   0.000  1.00  0.00    -0.392 OA
ATOM     24  H   UNL     1       0.000   0.000   0.000  1.00  0.00     0.210 HD
ENDBRANCH  19  23
TORSDOF 2
