REMARK SMILES COC(=O)c1c2n(c3ccccc3c1=O)C(=O)C(OC)=C2
REMARK SMILES IDX 5 1 6 2 21 3 18 4 16 5 17 6 7 7 8 8 9 9 10 10 11 11 12 12
REMARK SMILES IDX 13 13 14 14 15 15 3 16 4 17 2 18 1 19 19 20 20 21
REMARK H PARENT
ROOT
ATOM      1  C   UNL     1       0.172   1.406   0.000  1.00  0.00     0.132 A 
ATOM      2  C   UNL     1      -0.821   0.281   0.000  1.00  0.00     0.072 A 
ATOM      3  C   UNL     1      -2.321   0.267   0.000  1.00  0.00     0.080 C 
ATOM      4  C   UNL     1      -2.770  -1.164   0.000  1.00  0.00     0.186 C 
ATOM      5  C   UNL     1      -1.548  -2.034   0.000  1.00  0.00     0.297 C 
ATOM      6  O   UNL     1      -1.534  -3.534   0.000  1.00  0.00    -0.265 OA
ATOM      7  N   UNL     1      -0.343  -1.141   0.000  1.00  0.00    -0.272 N 
ATOM      8  C   UNL     1       1.127  -1.438   0.000  1.00  0.00     0.061 A 
ATOM      9  C   UNL     1       1.604  -2.860   0.000  1.00  0.00     0.027 A 
ATOM     10  C   UNL     1       3.075  -3.157   0.000  1.00  0.00     0.002 A 
ATOM     11  C   UNL     1       4.067  -2.033   0.000  1.00  0.00     0.001 A 
ATOM     12  C   UNL     1       3.590  -0.611   0.000  1.00  0.00     0.014 A 
ATOM     13  C   UNL     1       2.120  -0.313   0.000  1.00  0.00     0.047 A 
ATOM     14  C   UNL     1       1.642   1.109   0.000  1.00  0.00     0.204 A 
ATOM     15  O   UNL     1       2.635   2.233   0.000  1.00  0.00    -0.288 OA
ENDROOT
BRANCH   1  16
ATOM     16  C   UNL     1      -0.306   2.828   0.000  1.00  0.00     0.344 C 
ATOM     17  O   UNL     1      -1.776   3.125   0.000  1.00  0.00    -0.246 OA
BRANCH  16  18
ATOM     18  O   UNL     1       0.687   3.953   0.000  1.00  0.00    -0.465 OA
ATOM     19  C   UNL     1       0.210   5.374   0.000  1.00  0.00     0.282 C 
ENDBRANCH  16  18
ENDBRANCH   1  16
BRANCH   4  20
ATOM     20  O   UNL     1      -4.192  -1.642   0.000  1.00  0.00    -0.491 OA
ATOM     21  C   UNL     1      -5.317  -0.649   0.000  1.00  0.00     0.278 C 
ENDBRANCH   4  20
TORSDOF 3
