REMARK SMILES C=CC[C@@]12C=C(OC)C(=O)C=C1O[C@H](Cc1ccc3c(c1)OCO3)[C@@H]2C
REMARK SMILES IDX 4 1 5 2 6 3 9 4 10 5 11 6 12 7 13 8 14 9 25 10 26 11 3 12
REMARK SMILES IDX 2 13 1 14 7 15 8 16 15 17 16 18 17 19 21 20 18 21 20 22
REMARK SMILES IDX 19 23 22 24 24 25 23 26
REMARK H PARENT
ROOT
ATOM      1  C   UNL     1       2.112  -0.234   0.000  1.00  0.00     0.059 C 
ATOM      2  C   UNL     1       3.612  -0.265   0.000  1.00  0.00     0.039 C 
ATOM      3  C   UNL     1       4.389   1.018   0.000  1.00  0.00     0.163 C 
ATOM      4  C   UNL     1       3.666   2.332   0.000  1.00  0.00     0.223 C 
ATOM      5  O   UNL     1       4.443   3.615   0.000  1.00  0.00    -0.286 OA
ATOM      6  C   UNL     1       2.167   2.364   0.000  1.00  0.00     0.098 C 
ATOM      7  C   UNL     1       1.389   1.081   0.000  1.00  0.00     0.111 C 
ATOM      8  O   UNL     1      -0.084   0.799   0.000  1.00  0.00    -0.493 OA
ATOM      9  C   UNL     1      -0.272  -0.689   0.000  1.00  0.00     0.181 C 
ATOM     10  C   UNL     1       1.086  -1.327   0.000  1.00  0.00     0.045 C 
ATOM     11  C   UNL     1       1.367  -2.801   0.000  1.00  0.00     0.013 C 
ENDROOT
BRANCH   1  12
ATOM     12  C   UNL     1       2.694  -1.617   0.000  1.00  0.00     0.046 C 
BRANCH  12  13
ATOM     13  C   UNL     1       4.182  -1.804   0.000  1.00  0.00    -0.033 C 
ATOM     14  C   UNL     1       4.763  -3.187   0.000  1.00  0.00     0.004 C 
ENDBRANCH  12  13
ENDBRANCH   1  12
BRANCH   3  15
ATOM     15  O   UNL     1       5.889   0.987   0.000  1.00  0.00    -0.493 OA
ATOM     16  C   UNL     1       6.611  -0.328   0.000  1.00  0.00     0.278 C 
ENDBRANCH   3  15
BRANCH   9  17
ATOM     17  C   UNL     1      -1.586  -1.412   0.000  1.00  0.00     0.081 C 
BRANCH  17  18
ATOM     18  C   UNL     1      -2.869  -0.635   0.000  1.00  0.00    -0.040 A 
ATOM     19  C   UNL     1      -2.838   0.865   0.000  1.00  0.00     0.008 A 
ATOM     20  C   UNL     1      -4.184  -1.357   0.000  1.00  0.00     0.054 A 
ATOM     21  C   UNL     1      -4.121   1.642   0.000  1.00  0.00     0.051 A 
ATOM     22  C   UNL     1      -5.467  -0.581   0.000  1.00  0.00     0.166 A 
ATOM     23  C   UNL     1      -5.436   0.919   0.000  1.00  0.00     0.165 A 
ATOM     24  O   UNL     1      -6.903  -1.014   0.000  1.00  0.00    -0.454 OA
ATOM     25  O   UNL     1      -6.852   1.412   0.000  1.00  0.00    -0.454 OA
ATOM     26  C   UNL     1      -7.759   0.217   0.000  1.00  0.00     0.468 C 
ENDBRANCH  17  18
ENDBRANCH   9  17
TORSDOF 5
