REMARK SMILES CC[C@H](C)/C=C/C1=CC2=C(Cl)C(=O)[C@@]3(C)OC(=O)C4=C(C(C)C(C)O)OC(O1)C2(O)C43O
REMARK SMILES IDX 7 1 8 2 9 3 10 4 11 5 12 6 13 7 14 8 15 9 16 10 17 11 18 12
REMARK SMILES IDX 19 13 20 14 26 15 27 16 28 17 29 18 31 19 6 20 5 21 3 22
REMARK SMILES IDX 4 23 2 24 1 25 30 26 32 28 21 30 22 31 23 32 24 33 25 34
REMARK H PARENT 30 27 32 29 25 35
ROOT
ATOM      1  C   UNL     1      -2.909   0.245   0.000  1.00  0.00     0.124 C 
ATOM      2  C   UNL     1      -2.261   1.598   0.000  1.00  0.00     0.055 C 
ATOM      3  C   UNL     1      -0.766   1.714   0.000  1.00  0.00     0.021 C 
ATOM      4  C   UNL     1      -0.118   3.067   0.000  1.00  0.00     0.095 C 
ATOM      5  Cl  UNL     1      -0.966   4.304   0.000  1.00  0.00    -0.080 Cl
ATOM      6  C   UNL     1       1.377   3.182   0.000  1.00  0.00     0.221 C 
ATOM      7  O   UNL     1       2.025   4.535   0.000  1.00  0.00    -0.288 OA
ATOM      8  C   UNL     1       2.225   1.945   0.000  1.00  0.00     0.209 C 
ATOM      9  C   UNL     1       3.011   3.223   0.000  1.00  0.00     0.070 C 
ATOM     10  O   UNL     1       3.712   1.747   0.000  1.00  0.00    -0.444 OA
ATOM     11  C   UNL     1       3.983   0.272   0.000  1.00  0.00     0.341 C 
ATOM     12  O   UNL     1       5.336  -0.376   0.000  1.00  0.00    -0.246 OA
ATOM     13  C   UNL     1       2.664  -0.442   0.000  1.00  0.00     0.115 C 
ATOM     14  C   UNL     1       1.837  -1.864   0.000  1.00  0.00     0.120 C 
ATOM     15  O   UNL     1       0.351  -2.064   0.000  1.00  0.00    -0.455 OA
ATOM     16  C   UNL     1      -0.566  -0.877   0.000  1.00  0.00     0.403 C 
ATOM     17  O   UNL     1      -2.061  -0.992   0.000  1.00  0.00    -0.451 OA
ATOM     18  C   UNL     1       0.082   0.476   0.000  1.00  0.00     0.203 C 
ATOM     19  C   UNL     1       1.578   0.592   0.000  1.00  0.00     0.187 C 
ENDROOT
BRANCH   1  20
ATOM     20  C   UNL     1      -4.405   0.130   0.000  1.00  0.00     0.042 C 
BRANCH  20  21
ATOM     21  C   UNL     1      -5.052  -1.223   0.000  1.00  0.00    -0.020 C 
BRANCH  21  22
ATOM     22  C   UNL     1      -6.548  -1.339   0.000  1.00  0.00     0.008 C 
ATOM     23  C   UNL     1      -7.196  -2.692   0.000  1.00  0.00     0.012 C 
BRANCH  22  24
ATOM     24  C   UNL     1      -7.396  -0.102   0.000  1.00  0.00     0.004 C 
ATOM     25  C   UNL     1      -8.891  -0.217   0.000  1.00  0.00     0.004 C 
ENDBRANCH  22  24
ENDBRANCH  21  22
ENDBRANCH  20  21
ENDBRANCH   1  20
BRANCH  18  26
ATOM     26  O   UNL     1       0.730   1.829   0.000  1.00  0.00    -0.375 OA
ATOM     27  H   UNL     1       0.000   0.000   0.000  1.00  0.00     0.212 HD
ENDBRANCH  18  26
BRANCH  19  28
ATOM     28  O   UNL     1       1.075  -0.822   0.000  1.00  0.00    -0.377 OA
ATOM     29  H   UNL     1       0.000   0.000   0.000  1.00  0.00     0.212 HD
ENDBRANCH  19  28
BRANCH  14  30
ATOM     30  C   UNL     1       2.754  -3.052   0.000  1.00  0.00     0.081 C 
ATOM     31  C   UNL     1       2.184  -4.439   0.000  1.00  0.00     0.019 C 
BRANCH  30  32
ATOM     32  C   UNL     1       4.241  -2.852   0.000  1.00  0.00     0.121 C 
ATOM     33  C   UNL     1       5.157  -4.039   0.000  1.00  0.00     0.039 C 
BRANCH  32  34
ATOM     34  O   UNL     1       4.811  -1.464   0.000  1.00  0.00    -0.393 OA
ATOM     35  H   UNL     1       0.000   0.000   0.000  1.00  0.00     0.210 HD
ENDBRANCH  32  34
ENDBRANCH  30  32
ENDBRANCH  14  30
TORSDOF 9
