REMARK SMILES COC(=O)[C@]12CC[C@@H](C)[C@H](C)[C@H]1C1=CC[C@@H]3[C@@]4(C)CCC(OC(C)=O)C(C)(C)[C@@H]4CC[C@@]3(C)[C@]1(C)CC2
REMARK SMILES IDX 5 1 6 2 7 3 8 4 9 5 10 6 11 7 12 8 13 9 14 10 15 11 16 12
REMARK SMILES IDX 17 13 18 14 19 15 20 16 21 17 26 18 27 19 28 20 29 21 30 22
REMARK SMILES IDX 31 23 32 24 33 25 34 26 35 27 36 28 37 29 3 30 4 31 2 32
REMARK SMILES IDX 1 33 22 34 23 35 24 36 25 37
REMARK H PARENT
ROOT
ATOM      1  C   UNL     1       4.204  -0.291   0.000  1.00  0.00     0.075 C 
ATOM      2  C   UNL     1       5.695  -0.125   0.000  1.00  0.00     0.020 C 
ATOM      3  C   UNL     1       6.296   1.249   0.000  1.00  0.00     0.005 C 
ATOM      4  C   UNL     1       5.407   2.458   0.000  1.00  0.00    -0.011 C 
ATOM      5  C   UNL     1       6.009   3.832   0.000  1.00  0.00     0.008 C 
ATOM      6  C   UNL     1       3.917   2.292   0.000  1.00  0.00    -0.003 C 
ATOM      7  C   UNL     1       3.027   3.500   0.000  1.00  0.00     0.008 C 
ATOM      8  C   UNL     1       3.315   0.917   0.000  1.00  0.00     0.036 C 
ATOM      9  C   UNL     1       1.824   0.752   0.000  1.00  0.00    -0.063 C 
ATOM     10  C   UNL     1       0.935   1.960   0.000  1.00  0.00    -0.027 C 
ATOM     11  C   UNL     1      -0.556   1.794   0.000  1.00  0.00     0.032 C 
ATOM     12  C   UNL     1      -1.158   0.420   0.000  1.00  0.00     0.006 C 
ATOM     13  C   UNL     1      -2.648   0.254   0.000  1.00  0.00    -0.025 C 
ATOM     14  C   UNL     1      -2.047   1.628   0.000  1.00  0.00     0.012 C 
ATOM     15  C   UNL     1      -3.538   1.462   0.000  1.00  0.00     0.011 C 
ATOM     16  C   UNL     1      -5.028   1.296   0.000  1.00  0.00     0.046 C 
ATOM     17  C   UNL     1      -5.630  -0.078   0.000  1.00  0.00     0.182 C 
ATOM     18  C   UNL     1      -4.741  -1.286   0.000  1.00  0.00     0.005 C 
ATOM     19  C   UNL     1      -4.319  -2.725   0.000  1.00  0.00     0.015 C 
ATOM     20  C   UNL     1      -6.085  -1.952   0.000  1.00  0.00     0.015 C 
ATOM     21  C   UNL     1      -3.250  -1.120   0.000  1.00  0.00     0.005 C 
ATOM     22  C   UNL     1      -2.361  -2.328   0.000  1.00  0.00     0.005 C 
ATOM     23  C   UNL     1      -0.870  -2.162   0.000  1.00  0.00     0.008 C 
ATOM     24  C   UNL     1      -0.269  -0.788   0.000  1.00  0.00    -0.020 C 
ATOM     25  C   UNL     1       0.621  -1.996   0.000  1.00  0.00     0.012 C 
ATOM     26  C   UNL     1       1.222  -0.622   0.000  1.00  0.00    -0.006 C 
ATOM     27  C   UNL     1       2.713  -0.457   0.000  1.00  0.00     0.017 C 
ATOM     28  C   UNL     1       2.111  -1.831   0.000  1.00  0.00     0.013 C 
ATOM     29  C   UNL     1       3.602  -1.665   0.000  1.00  0.00     0.020 C 
ENDROOT
BRANCH   1  30
ATOM     30  C   UNL     1       5.093  -1.499   0.000  1.00  0.00     0.312 C 
ATOM     31  O   UNL     1       4.491  -2.873   0.000  1.00  0.00    -0.252 OA
BRANCH  30  32
ATOM     32  O   UNL     1       6.584  -1.333   0.000  1.00  0.00    -0.469 OA
ATOM     33  C   UNL     1       7.473  -2.541   0.000  1.00  0.00     0.282 C 
ENDBRANCH  30  32
ENDBRANCH   1  30
BRANCH  17  34
ATOM     34  O   UNL     1      -7.121  -0.244   0.000  1.00  0.00    -0.462 OA
BRANCH  34  35
ATOM     35  C   UNL     1      -8.010   0.964   0.000  1.00  0.00     0.302 C 
ATOM     36  C   UNL     1      -9.501   0.798   0.000  1.00  0.00     0.139 C 
ATOM     37  O   UNL     1      -7.408   2.338   0.000  1.00  0.00    -0.253 OA
ENDBRANCH  34  35
ENDBRANCH  17  34
TORSDOF 4
