REMARK SMILES COC1=Cc2c(cc(OC)c3cc(C)c(OC)cc23)C(C)(C)C1=O
REMARK SMILES IDX 3 1 4 2 5 3 6 4 7 5 8 6 11 7 12 8 13 9 14 10 15 11 18 12
REMARK SMILES IDX 19 13 20 14 21 15 22 16 23 17 24 18 2 19 1 20 9 21 10 22
REMARK SMILES IDX 16 23 17 24
REMARK H PARENT
ROOT
ATOM      1  C   UNL     1      -2.705   1.698   0.000  1.00  0.00     0.163 C 
ATOM      2  C   UNL     1      -1.208   1.614   0.000  1.00  0.00     0.059 C 
ATOM      3  C   UNL     1      -0.531   0.276   0.000  1.00  0.00    -0.009 A 
ATOM      4  C   UNL     1      -1.353  -0.980   0.000  1.00  0.00    -0.023 A 
ATOM      5  C   UNL     1      -0.677  -2.319   0.000  1.00  0.00     0.052 A 
ATOM      6  C   UNL     1       0.821  -2.402   0.000  1.00  0.00     0.127 A 
ATOM      7  C   UNL     1       1.643  -1.147   0.000  1.00  0.00     0.025 A 
ATOM      8  C   UNL     1       3.140  -1.231   0.000  1.00  0.00     0.019 A 
ATOM      9  C   UNL     1       3.962   0.024   0.000  1.00  0.00    -0.008 A 
ATOM     10  C   UNL     1       5.459  -0.060   0.000  1.00  0.00     0.048 C 
ATOM     11  C   UNL     1       3.285   1.363   0.000  1.00  0.00     0.122 A 
ATOM     12  C   UNL     1       1.788   1.447   0.000  1.00  0.00     0.056 A 
ATOM     13  C   UNL     1       0.966   0.192   0.000  1.00  0.00    -0.003 A 
ATOM     14  C   UNL     1      -2.850  -0.896   0.000  1.00  0.00     0.057 C 
ATOM     15  C   UNL     1      -2.673  -2.385   0.000  1.00  0.00     0.025 C 
ATOM     16  C   UNL     1      -4.287  -1.329   0.000  1.00  0.00     0.025 C 
ATOM     17  C   UNL     1      -3.527   0.443   0.000  1.00  0.00     0.207 C 
ATOM     18  O   UNL     1      -5.024   0.527   0.000  1.00  0.00    -0.290 OA
ENDROOT
BRANCH   1  19
ATOM     19  O   UNL     1      -3.381   3.037   0.000  1.00  0.00    -0.493 OA
ATOM     20  C   UNL     1      -2.560   4.292   0.000  1.00  0.00     0.278 C 
ENDBRANCH   1  19
BRANCH   6  21
ATOM     21  O   UNL     1       1.497  -3.741   0.000  1.00  0.00    -0.496 OA
ATOM     22  C   UNL     1       0.676  -4.997   0.000  1.00  0.00     0.278 C 
ENDBRANCH   6  21
BRANCH  11  23
ATOM     23  O   UNL     1       4.107   2.618   0.000  1.00  0.00    -0.496 OA
ATOM     24  C   UNL     1       3.431   3.957   0.000  1.00  0.00     0.278 C 
ENDBRANCH  11  23
TORSDOF 3
