REMARK SMILES COc1cccc2c1N(C(C)=O)C13CCCC4(CCCN5CCC21[C@@H]54)CC3
REMARK SMILES IDX 3 1 4 2 5 3 6 4 7 5 8 6 9 7 13 8 17 9 18 10 19 11 20 12
REMARK SMILES IDX 21 13 22 14 23 15 24 16 25 17 26 18 27 19 2 20 1 21 10 22
REMARK SMILES IDX 11 23 12 24 14 25 15 26 16 28
REMARK H PARENT
REMARK Flexibility Score:    3.900
ROOT
ATOM      1  C   UNL     1       2.997  -1.127   0.000  1.00  0.00     0.142 A 
ATOM      2  C   UNL     1       2.812  -2.616   0.000  1.00  0.00     0.049 A 
ATOM      3  C   UNL     1       1.430  -3.200   0.000  1.00  0.00     0.004 A 
ATOM      4  C   UNL     1       0.234  -2.296   0.000  1.00  0.00     0.007 A 
ATOM      5  C   UNL     1       0.418  -0.807   0.000  1.00  0.00    -0.010 A 
ATOM      6  C   UNL     1       1.800  -0.223   0.000  1.00  0.00     0.090 A 
ATOM      7  N   UNL     1       1.671   1.272   0.000  1.00  0.00    -0.302 N 
ATOM      8  C   UNL     1       0.210   1.611   0.000  1.00  0.00     0.059 C 
ATOM      9  C   UNL     1      -3.131   1.172   0.000  1.00  0.00    -0.013 C 
ATOM     10  C   UNL     1      -4.546   0.672   0.000  1.00  0.00     0.010 C 
ATOM     11  C   UNL     1      -4.864  -0.794   0.000  1.00  0.00     0.016 C 
ATOM     12  C   UNL     1      -3.753  -1.802   0.000  1.00  0.00     0.085 C 
ATOM     13  N   UNL     1      -2.325  -1.344   0.000  1.00  0.00    -0.299 NA
ATOM     14  C   UNL     1      -1.382  -0.450   0.000  1.00  0.00     0.086 C 
ATOM     15  C   UNL     1      -1.507  -0.568   0.000  1.00  0.00     0.031 C 
ATOM     16  C   UNL     1      -0.564   0.327   0.000  1.00  0.00     0.038 C 
ATOM     17  C   UNL     1      -2.051   0.131   0.000  1.00  0.00     0.076 C 
ATOM     18  C   UNL     1      -2.357   2.456   0.000  1.00  0.00     0.011 C 
ATOM     19  C   UNL     1      -0.870   2.652   0.000  1.00  0.00     0.030 C 
ENDROOT
BRANCH   1  20
ATOM     20  O   UNL     1       4.378  -0.543   0.000  1.00  0.00    -0.495 OA
ATOM     21  C   UNL     1       5.575  -1.448   0.000  1.00  0.00     0.278 C 
ENDBRANCH   1  20
BRANCH   7  22
ATOM     22  C   UNL     1       2.805   2.254   0.000  1.00  0.00     0.224 C 
ATOM     23  C   UNL     1       2.521   3.727   0.000  1.00  0.00     0.115 C 
ATOM     24  O   UNL     1       4.223   1.764   0.000  1.00  0.00    -0.275 OA
ENDBRANCH   7  22
BRANCH   8  25
ATOM     25  C   UNL     1       0.070   0.118   0.000  1.00  0.00     0.030 C 
BRANCH  25  26
ATOM     26  C   UNL     1      -1.185  -0.704   0.000  1.00  0.00     0.003 CG0
ATOM     27  G   UNL     1      -2.610  -0.235   0.000  1.00  0.00     0.000 G0
ENDBRANCH  25  26
ENDBRANCH   8  25
BRANCH   9  28
ATOM     28  C   UNL     1      -2.610  -0.235   0.000  1.00  0.00     0.009 CG0
ATOM     29  G   UNL     1      -1.185  -0.704   0.000  1.00  0.00     0.000 G0
ENDBRANCH   9  28
TORSDOF 2
