REMARK SMILES O=C1C[C@@H](O)[C@@H](O)c2cccc(O)c21
REMARK SMILES IDX 1 1 2 2 3 3 4 4 6 5 8 6 9 7 10 8 11 9 12 10 14 11 5 12 13 14
REMARK SMILES IDX 7 16
REMARK H PARENT 5 13 13 15 7 17
ROOT
ATOM      1  O   UNL     1       0.714   2.953   0.000  1.00  0.00    -0.294 OA
ATOM      2  C   UNL     1      -0.067   1.672   0.000  1.00  0.00     0.169 C 
ATOM      3  C   UNL     1      -1.567   1.708   0.000  1.00  0.00     0.116 C 
ATOM      4  C   UNL     1      -2.348   0.428   0.000  1.00  0.00     0.155 C 
ATOM      5  C   UNL     1      -1.629  -0.889   0.000  1.00  0.00     0.174 C 
ATOM      6  C   UNL     1      -0.129  -0.925   0.000  1.00  0.00    -0.002 A 
ATOM      7  C   UNL     1       0.589  -2.242   0.000  1.00  0.00     0.007 A 
ATOM      8  C   UNL     1       2.089  -2.278   0.000  1.00  0.00     0.004 A 
ATOM      9  C   UNL     1       2.870  -0.997   0.000  1.00  0.00     0.047 A 
ATOM     10  C   UNL     1       2.151   0.320   0.000  1.00  0.00     0.126 A 
ATOM     11  C   UNL     1       0.652   0.356   0.000  1.00  0.00     0.065 A 
ENDROOT
BRANCH   4  12
ATOM     12  O   UNL     1      -3.847   0.464   0.000  1.00  0.00    -0.390 OA
ATOM     13  H   UNL     1       0.000   0.000   0.000  1.00  0.00     0.211 HD
ENDBRANCH   4  12
BRANCH  10  14
ATOM     14  O   UNL     1       2.932   1.600   0.000  1.00  0.00    -0.507 OA
ATOM     15  H   UNL     1       0.000   0.000   0.000  1.00  0.00     0.293 HD
ENDBRANCH  10  14
BRANCH   5  16
ATOM     16  O   UNL     1      -2.410  -2.170   0.000  1.00  0.00    -0.386 OA
ATOM     17  H   UNL     1       0.000   0.000   0.000  1.00  0.00     0.211 HD
ENDBRANCH   5  16
TORSDOF 3
