REMARK SMILES COc1ccc(-c2coc3c(OC)c(O)ccc3c2=O)cc1O
REMARK SMILES IDX 7 1 8 2 9 3 10 4 11 5 14 6 16 7 17 8 18 9 19 10 20 11 6 12
REMARK SMILES IDX 3 13 4 14 22 15 5 16 21 17 2 18 1 19 23 20 12 22 13 23 15 24
REMARK H PARENT 23 21 15 25
ROOT
ATOM      1  C   UNL     1      -0.339  -0.206   0.000  1.00  0.00     0.065 A 
ATOM      2  C   UNL     1       0.333  -1.547   0.000  1.00  0.00     0.208 A 
ATOM      3  O   UNL     1       1.830  -1.637   0.000  1.00  0.00    -0.459 OA
ATOM      4  C   UNL     1       2.656  -0.384   0.000  1.00  0.00     0.183 A 
ATOM      5  C   UNL     1       4.153  -0.473   0.000  1.00  0.00     0.204 A 
ATOM      6  C   UNL     1       4.979   0.779   0.000  1.00  0.00     0.161 A 
ATOM      7  C   UNL     1       4.307   2.120   0.000  1.00  0.00     0.051 A 
ATOM      8  C   UNL     1       2.810   2.209   0.000  1.00  0.00     0.020 A 
ATOM      9  C   UNL     1       1.984   0.957   0.000  1.00  0.00     0.069 A 
ATOM     10  C   UNL     1       0.487   1.046   0.000  1.00  0.00     0.200 A 
ATOM     11  O   UNL     1      -0.185   2.387   0.000  1.00  0.00    -0.288 OA
ENDROOT
BRANCH   1  12
ATOM     12  C   UNL     1      -1.836  -0.117   0.000  1.00  0.00    -0.007 A 
ATOM     13  C   UNL     1      -4.831   0.061   0.000  1.00  0.00     0.160 A 
ATOM     14  C   UNL     1      -4.005   1.313   0.000  1.00  0.00     0.051 A 
ATOM     15  C   UNL     1      -4.160  -1.280   0.000  1.00  0.00     0.158 A 
ATOM     16  C   UNL     1      -2.508   1.224   0.000  1.00  0.00     0.013 A 
ATOM     17  C   UNL     1      -2.662  -1.369   0.000  1.00  0.00     0.059 A 
BRANCH  13  18
ATOM     18  O   UNL     1      -6.328   0.150   0.000  1.00  0.00    -0.493 OA
ATOM     19  C   UNL     1      -7.000   1.492   0.000  1.00  0.00     0.278 C 
ENDBRANCH  13  18
BRANCH  15  20
ATOM     20  O   UNL     1      -4.985  -2.532   0.000  1.00  0.00    -0.504 OA
ATOM     21  H   UNL     1       0.000   0.000   0.000  1.00  0.00     0.293 HD
ENDBRANCH  15  20
ENDBRANCH   1  12
BRANCH   5  22
ATOM     22  O   UNL     1       4.825  -1.815   0.000  1.00  0.00    -0.490 OA
ATOM     23  C   UNL     1       3.999  -3.067   0.000  1.00  0.00     0.278 C 
ENDBRANCH   5  22
BRANCH   6  24
ATOM     24  O   UNL     1       6.476   0.690   0.000  1.00  0.00    -0.504 OA
ATOM     25  H   UNL     1       0.000   0.000   0.000  1.00  0.00     0.293 HD
ENDBRANCH   6  24
TORSDOF 5
