REMARK SMILES CC(=O)CCCCCCCCCCCC[C@H]1CC[C@@H](O[Si](C)(C)C(C)(C)C)[C@@H](C)N1
REMARK SMILES IDX 11 1 10 2 9 3 8 4 7 5 6 6 5 7 4 8 2 9 1 10 3 11 12 12 13 13
REMARK SMILES IDX 14 14 15 15 16 16 17 17 30 18 18 19 28 20 19 21 29 23 20 24
REMARK SMILES IDX 21 25 22 26 23 27 24 28 25 29 26 30 27 31
REMARK H PARENT 30 22
ROOT
ATOM      1  C   UNL     1      -3.128  -1.212   0.000  1.00  0.00     0.000 C 
ENDROOT
BRANCH   1   2
ATOM      2  C   UNL     1      -4.247  -0.212   0.000  1.00  0.00     0.000 C 
BRANCH   2   3
ATOM      3  C   UNL     1      -5.671  -0.681   0.000  1.00  0.00     0.000 C 
BRANCH   3   4
ATOM      4  C   UNL     1      -6.790   0.319   0.000  1.00  0.00     0.000 C 
BRANCH   4   5
ATOM      5  C   UNL     1      -8.215  -0.150   0.000  1.00  0.00     0.000 C 
BRANCH   5   6
ATOM      6  C   UNL     1      -9.333   0.849   0.000  1.00  0.00     0.000 C 
BRANCH   6   7
ATOM      7  C   UNL     1     -10.758   0.380   0.000  1.00  0.00     0.008 C 
BRANCH   7   8
ATOM      8  C   UNL     1     -11.876   1.380   0.000  1.00  0.00     0.075 C 
BRANCH   8   9
ATOM      9  C   UNL     1     -13.301   0.911   0.000  1.00  0.00     0.129 C 
ATOM     10  C   UNL     1     -14.420   1.911   0.000  1.00  0.00     0.087 C 
ATOM     11  O   UNL     1     -13.608  -0.557   0.000  1.00  0.00    -0.300 OA
ENDBRANCH   8   9
ENDBRANCH   7   8
ENDBRANCH   6   7
ENDBRANCH   5   6
ENDBRANCH   4   5
ENDBRANCH   3   4
ENDBRANCH   2   3
ENDBRANCH   1   2
BRANCH   1  12
ATOM     12  C   UNL     1      -1.703  -0.743   0.000  1.00  0.00     0.000 C 
BRANCH  12  13
ATOM     13  C   UNL     1      -0.585  -1.742   0.000  1.00  0.00     0.000 C 
BRANCH  13  14
ATOM     14  C   UNL     1       0.840  -1.273   0.000  1.00  0.00     0.002 C 
BRANCH  14  15
ATOM     15  C   UNL     1       1.959  -2.273   0.000  1.00  0.00     0.019 C 
BRANCH  15  16
ATOM     16  C   UNL     1       3.383  -1.804   0.000  1.00  0.00     0.054 C 
ATOM     17  C   UNL     1       3.690  -0.336   0.000  1.00  0.00     0.021 C 
ATOM     18  N   UNL     1       4.502  -2.804   0.000  1.00  0.00    -0.309 NA
ATOM     19  C   UNL     1       5.115   0.133   0.000  1.00  0.00     0.034 C 
ATOM     20  C   UNL     1       5.927  -2.335   0.000  1.00  0.00     0.078 C 
ATOM     21  C   UNL     1       6.233  -0.866   0.000  1.00  0.00     0.121 C 
ATOM     22  H   UNL     1       0.000   0.000   0.000  1.00  0.00     0.123 HD
ATOM     23  C   UNL     1       7.045  -3.334   0.000  1.00  0.00     0.027 C 
BRANCH  21  24
ATOM     24  O   UNL     1       7.658  -0.398   0.000  1.00  0.00    -0.412 OA
BRANCH  24  25
ATOM     25  Si  UNL     1       7.964   1.071   0.000  1.00  0.00     0.192 Si
ATOM     26  C   UNL     1       9.433   0.764   0.000  1.00  0.00     0.021 C 
ATOM     27  C   UNL     1       6.496   1.377   0.000  1.00  0.00     0.021 C 
BRANCH  25  28
ATOM     28  C   UNL     1       8.271   2.539   0.000  1.00  0.00    -0.019 C 
ATOM     29  C   UNL     1       6.802   2.846   0.000  1.00  0.00     0.010 C 
ATOM     30  C   UNL     1       9.739   2.233   0.000  1.00  0.00     0.010 C 
ATOM     31  C   UNL     1       8.577   4.008   0.000  1.00  0.00     0.010 C 
ENDBRANCH  25  28
ENDBRANCH  24  25
ENDBRANCH  21  24
ENDBRANCH  15  16
ENDBRANCH  14  15
ENDBRANCH  13  14
ENDBRANCH  12  13
ENDBRANCH   1  12
TORSDOF 16
