REMARK SMILES C=CCOc1cc2c(cc1OC)[C@H](C)[C@@H](c1cc(OC)c3c(c1)OCO3)O2
REMARK SMILES IDX 5 1 6 2 7 3 8 4 9 5 10 6 13 7 14 8 15 9 27 10 4 11 3 12 2 13
REMARK SMILES IDX 1 14 11 15 12 16 16 17 17 18 23 19 18 20 22 21 21 22 24 23
REMARK SMILES IDX 26 24 25 25 19 26 20 27
REMARK H PARENT
ROOT
ATOM      1  C   UNL     1       4.123   0.188   0.000  1.00  0.00     0.165 A 
ATOM      2  C   UNL     1       2.968  -0.769   0.000  1.00  0.00     0.097 A 
ATOM      3  C   UNL     1       1.562  -0.246   0.000  1.00  0.00     0.127 A 
ATOM      4  C   UNL     1       1.311   1.232   0.000  1.00  0.00     0.005 A 
ATOM      5  C   UNL     1       2.467   2.189   0.000  1.00  0.00     0.058 A 
ATOM      6  C   UNL     1       3.873   1.666   0.000  1.00  0.00     0.161 A 
ATOM      7  C   UNL     1      -0.173   1.451   0.000  1.00  0.00     0.066 C 
ATOM      8  C   UNL     1      -0.868   2.780   0.000  1.00  0.00     0.017 C 
ATOM      9  C   UNL     1      -0.839   0.107   0.000  1.00  0.00     0.211 C 
ATOM     10  O   UNL     1       0.233  -0.942   0.000  1.00  0.00    -0.485 OA
ENDROOT
BRANCH   1  11
ATOM     11  O   UNL     1       5.529  -0.335   0.000  1.00  0.00    -0.486 OA
BRANCH  11  12
ATOM     12  C   UNL     1       5.780  -1.814   0.000  1.00  0.00     0.257 C 
BRANCH  12  13
ATOM     13  C   UNL     1       7.186  -2.336   0.000  1.00  0.00     0.006 C 
ATOM     14  C   UNL     1       7.437  -3.815   0.000  1.00  0.00     0.007 C 
ENDBRANCH  12  13
ENDBRANCH  11  12
ENDBRANCH   1  11
BRANCH   6  15
ATOM     15  O   UNL     1       5.028   2.623   0.000  1.00  0.00    -0.493 OA
ATOM     16  C   UNL     1       6.434   2.100   0.000  1.00  0.00     0.278 C 
ENDBRANCH   6  15
BRANCH   9  17
ATOM     17  C   UNL     1      -2.318  -0.143   0.000  1.00  0.00     0.001 A 
ATOM     18  C   UNL     1      -3.275   1.012   0.000  1.00  0.00     0.058 A 
ATOM     19  C   UNL     1      -2.841  -1.549   0.000  1.00  0.00     0.058 A 
ATOM     20  C   UNL     1      -4.754   0.762   0.000  1.00  0.00     0.165 A 
ATOM     21  C   UNL     1      -4.320  -1.800   0.000  1.00  0.00     0.170 A 
ATOM     22  C   UNL     1      -5.276  -0.644   0.000  1.00  0.00     0.207 A 
ATOM     23  O   UNL     1      -5.123  -3.067   0.000  1.00  0.00    -0.453 OA
ATOM     24  O   UNL     1      -6.671  -1.197   0.000  1.00  0.00    -0.450 OA
ATOM     25  C   UNL     1      -6.576  -2.694   0.000  1.00  0.00     0.468 C 
BRANCH  20  26
ATOM     26  O   UNL     1      -5.710   1.917   0.000  1.00  0.00    -0.493 OA
ATOM     27  C   UNL     1      -5.188   3.323   0.000  1.00  0.00     0.278 C 
ENDBRANCH  20  26
ENDBRANCH   9  17
TORSDOF 6
