REMARK SMILES CCc1c(C)ccc2c1CC[C@H]1C(C)(C)C=CC[C@]21C
REMARK SMILES IDX 3 1 4 2 5 3 6 4 7 5 8 6 9 7 10 8 11 9 12 10 13 11 14 12
REMARK SMILES IDX 15 13 16 14 17 15 18 16 19 17 20 18 2 19 1 20
REMARK H PARENT
ROOT
ATOM      1  C   UNL     1      -2.659  -0.553   0.000  1.00  0.00    -0.042 A 
ATOM      2  C   UNL     1      -3.378   0.763   0.000  1.00  0.00    -0.048 A 
ATOM      3  C   UNL     1      -4.878   0.798   0.000  1.00  0.00     0.044 C 
ATOM      4  C   UNL     1      -2.598   2.044   0.000  1.00  0.00     0.004 A 
ATOM      5  C   UNL     1      -1.098   2.009   0.000  1.00  0.00     0.005 A 
ATOM      6  C   UNL     1      -0.379   0.693   0.000  1.00  0.00    -0.038 A 
ATOM      7  C   UNL     1      -1.159  -0.588   0.000  1.00  0.00    -0.041 A 
ATOM      8  C   UNL     1      -0.440  -1.904   0.000  1.00  0.00     0.036 C 
ATOM      9  C   UNL     1       1.060  -1.939   0.000  1.00  0.00     0.010 C 
ATOM     10  C   UNL     1       1.840  -0.658   0.000  1.00  0.00     0.009 C 
ATOM     11  C   UNL     1       3.340  -0.693   0.000  1.00  0.00    -0.014 C 
ATOM     12  C   UNL     1       4.737  -1.239   0.000  1.00  0.00     0.016 C 
ATOM     13  C   UNL     1       3.045  -2.164   0.000  1.00  0.00     0.016 C 
ATOM     14  C   UNL     1       4.120   0.588   0.000  1.00  0.00    -0.025 C 
ATOM     15  C   UNL     1       3.401   1.904   0.000  1.00  0.00    -0.030 C 
ATOM     16  C   UNL     1       1.901   1.939   0.000  1.00  0.00     0.039 C 
ATOM     17  C   UNL     1       1.121   0.658   0.000  1.00  0.00    -0.000 C 
ATOM     18  C   UNL     1       0.401   1.974   0.000  1.00  0.00     0.017 C 
ENDROOT
BRANCH   1  19
ATOM     19  C   UNL     1      -3.439  -1.834   0.000  1.00  0.00     0.032 C 
ATOM     20  C   UNL     1      -4.938  -1.799   0.000  1.00  0.00     0.009 C 
ENDBRANCH   1  19
TORSDOF 1
