REMARK SMILES COc1ccc(-c2coc3cc(OCC=C(C)C)ccc3c2=O)cc1O
REMARK SMILES IDX 13 1 12 2 7 3 8 4 22 5 9 6 21 7 10 8 20 9 11 10 19 11 23 12
REMARK SMILES IDX 6 13 3 14 4 15 25 16 5 17 24 18 2 19 1 20 26 21 14 23 15 24
REMARK SMILES IDX 16 25 17 26 18 27
REMARK H PARENT 26 22
ROOT
ATOM      1  O   UNL     1       5.010   1.307   0.000  1.00  0.00    -0.489 OA
ENDROOT
BRANCH   1   2
ATOM      2  C   UNL     1       3.510   1.260   0.000  1.00  0.00     0.123 A 
ATOM      3  C   UNL     1      -1.696  -0.203   0.000  1.00  0.00     0.065 A 
ATOM      4  C   UNL     1      -0.906  -1.478   0.000  1.00  0.00     0.208 A 
ATOM      5  C   UNL     1      -0.988   1.119   0.000  1.00  0.00     0.200 A 
ATOM      6  O   UNL     1       0.593  -1.431   0.000  1.00  0.00    -0.463 OA
ATOM      7  C   UNL     1       0.512   1.166   0.000  1.00  0.00     0.066 A 
ATOM      8  C   UNL     1       1.302  -0.109   0.000  1.00  0.00     0.141 A 
ATOM      9  C   UNL     1       1.221   2.488   0.000  1.00  0.00     0.020 A 
ATOM     10  C   UNL     1       2.801  -0.062   0.000  1.00  0.00     0.094 A 
ATOM     11  C   UNL     1       2.720   2.535   0.000  1.00  0.00     0.047 A 
ATOM     12  O   UNL     1      -1.778   2.394   0.000  1.00  0.00    -0.288 OA
BRANCH   3  13
ATOM     13  C   UNL     1      -3.196  -0.250   0.000  1.00  0.00    -0.007 A 
ATOM     14  C   UNL     1      -6.194  -0.344   0.000  1.00  0.00     0.160 A 
ATOM     15  C   UNL     1      -5.485   0.978   0.000  1.00  0.00     0.051 A 
ATOM     16  C   UNL     1      -5.404  -1.619   0.000  1.00  0.00     0.158 A 
ATOM     17  C   UNL     1      -3.986   1.025   0.000  1.00  0.00     0.013 A 
ATOM     18  C   UNL     1      -3.905  -1.572   0.000  1.00  0.00     0.059 A 
BRANCH  14  19
ATOM     19  O   UNL     1      -7.693  -0.391   0.000  1.00  0.00    -0.493 OA
ATOM     20  C   UNL     1      -8.484   0.884   0.000  1.00  0.00     0.278 C 
ENDBRANCH  14  19
BRANCH  16  21
ATOM     21  O   UNL     1      -6.113  -2.941   0.000  1.00  0.00    -0.504 OA
ATOM     22  H   UNL     1       0.000   0.000   0.000  1.00  0.00     0.293 HD
ENDBRANCH  16  21
ENDBRANCH   3  13
ENDBRANCH   1   2
BRANCH   1  23
ATOM     23  C   UNL     1       5.800   0.032   0.000  1.00  0.00     0.257 C 
BRANCH  23  24
ATOM     24  C   UNL     1       7.299   0.079   0.000  1.00  0.00     0.012 C 
BRANCH  24  25
ATOM     25  C   UNL     1       8.089  -1.196   0.000  1.00  0.00    -0.077 C 
ATOM     26  C   UNL     1       9.589  -1.149   0.000  1.00  0.00     0.039 C 
ATOM     27  C   UNL     1       7.381  -2.518   0.000  1.00  0.00     0.039 C 
ENDBRANCH  24  25
ENDBRANCH  23  24
ENDBRANCH   1  23
TORSDOF 7
