REMARK SMILES O=c1c(O)c(-c2ccc(O)c(O)c2)oc2cc(O)cc(O)c12
REMARK SMILES IDX 1 1 2 2 3 3 5 4 14 5 15 6 16 7 17 8 19 9 20 10 22 11 4 12
REMARK SMILES IDX 6 14 7 15 13 16 8 17 11 18 9 19 12 20 10 22 21 24 18 26
REMARK H PARENT 4 13 12 21 10 23 21 25 18 27
ROOT
ATOM      1  O   UNL     1       2.245   3.086   0.000  1.00  0.00    -0.285 OA
ATOM      2  C   UNL     1       1.603   1.730   0.000  1.00  0.00     0.238 A 
ATOM      3  C   UNL     1       0.108   1.608   0.000  1.00  0.00     0.208 A 
ATOM      4  C   UNL     1      -0.534   0.253   0.000  1.00  0.00     0.180 A 
ATOM      5  O   UNL     1       0.319  -0.981   0.000  1.00  0.00    -0.452 OA
ATOM      6  C   UNL     1       1.815  -0.859   0.000  1.00  0.00     0.146 A 
ATOM      7  C   UNL     1       2.668  -2.093   0.000  1.00  0.00     0.094 A 
ATOM      8  C   UNL     1       4.163  -1.971   0.000  1.00  0.00     0.123 A 
ATOM      9  C   UNL     1       4.804  -0.615   0.000  1.00  0.00     0.093 A 
ATOM     10  C   UNL     1       3.951   0.618   0.000  1.00  0.00     0.134 A 
ATOM     11  C   UNL     1       2.456   0.496   0.000  1.00  0.00     0.111 A 
ENDROOT
BRANCH   3  12
ATOM     12  O   UNL     1      -0.745   2.842   0.000  1.00  0.00    -0.502 OA
ATOM     13  H   UNL     1       0.000   0.000   0.000  1.00  0.00     0.293 HD
ENDBRANCH   3  12
BRANCH   4  14
ATOM     14  C   UNL     1      -2.029   0.131   0.000  1.00  0.00     0.025 A 
ATOM     15  C   UNL     1      -2.882   1.365   0.000  1.00  0.00     0.016 A 
ATOM     16  C   UNL     1      -2.671  -1.225   0.000  1.00  0.00     0.062 A 
ATOM     17  C   UNL     1      -4.377   1.243   0.000  1.00  0.00     0.051 A 
ATOM     18  C   UNL     1      -4.166  -1.347   0.000  1.00  0.00     0.158 A 
ATOM     19  C   UNL     1      -5.019  -0.113   0.000  1.00  0.00     0.157 A 
BRANCH  18  20
ATOM     20  O   UNL     1      -4.808  -2.703   0.000  1.00  0.00    -0.504 OA
ATOM     21  H   UNL     1       0.000   0.000   0.000  1.00  0.00     0.293 HD
ENDBRANCH  18  20
BRANCH  19  22
ATOM     22  O   UNL     1      -6.514  -0.235   0.000  1.00  0.00    -0.504 OA
ATOM     23  H   UNL     1       0.000   0.000   0.000  1.00  0.00     0.293 HD
ENDBRANCH  19  22
ENDBRANCH   4  14
BRANCH  10  24
ATOM     24  O   UNL     1       4.593   1.974   0.000  1.00  0.00    -0.507 OA
ATOM     25  H   UNL     1       0.000   0.000   0.000  1.00  0.00     0.293 HD
ENDBRANCH  10  24
BRANCH   8  26
ATOM     26  O   UNL     1       5.016  -3.205   0.000  1.00  0.00    -0.508 OA
ATOM     27  H   UNL     1       0.000   0.000   0.000  1.00  0.00     0.293 HD
ENDBRANCH   8  26
TORSDOF 6
