REMARK SMILES C=C(C)[C@@H]1C/C=C(/C)CC/C=C(/C)CC1
REMARK SMILES IDX 12 1 13 2 14 3 15 4 4 5 2 6 1 7 3 8 5 9 6 10 11 12 10 13
REMARK SMILES IDX 9 14 7 15 8 16
REMARK H PARENT
REMARK Flexibility Score:   24.900
ROOT
ATOM      1  C   UNL     1      -1.474   2.308   0.000  1.00  0.00    -0.077 C 
ATOM      2  C   UNL     1      -1.937   3.735   0.000  1.00  0.00     0.039 C 
ENDROOT
BRANCH   1   3
ATOM      3  C   UNL     1       0.026   2.308   0.000  1.00  0.00     0.031 C 
BRANCH   3   4
ATOM      4  C   UNL     1       1.240   1.427   0.000  1.00  0.00     0.013 C 
BRANCH   4   5
ATOM      5  C   UNL     1       1.703  -0.000   0.000  1.00  0.00     0.018 C 
BRANCH   5   6
ATOM      6  C   UNL     1       3.203   0.000   0.000  1.00  0.00    -0.077 C 
ATOM      7  C   UNL     1       3.953   1.299   0.000  1.00  0.00     0.008 C 
ATOM      8  C   UNL     1       3.953  -1.299   0.000  1.00  0.00     0.039 C 
ENDBRANCH   5   6
BRANCH   5   9
ATOM      9  C   UNL     1       1.240  -1.427   0.000  1.00  0.00     0.035 C 
BRANCH   9  10
ATOM     10  C   UNL     1       0.026  -2.308   0.000  1.00  0.00    -0.027 CG0
ATOM     11  G   UNL     1      -1.474  -2.308   0.000  1.00  0.00     0.000 G0
ENDBRANCH   9  10
ENDBRANCH   5   9
ENDBRANCH   4   5
ENDBRANCH   3   4
ENDBRANCH   1   3
BRANCH   1  12
ATOM     12  C   UNL     1      -2.687   1.427   0.000  1.00  0.00    -0.028 C 
BRANCH  12  13
ATOM     13  C   UNL     1      -3.151   0.000   0.000  1.00  0.00     0.032 C 
BRANCH  13  14
ATOM     14  C   UNL     1      -2.687  -1.427   0.000  1.00  0.00     0.034 C 
BRANCH  14  15
ATOM     15  C   UNL     1      -1.474  -2.308   0.000  1.00  0.00    -0.077 CG0
ATOM     16  C   UNL     1      -1.937  -3.735   0.000  1.00  0.00     0.039 C 
ATOM     17  G   UNL     1       0.026  -2.308   0.000  1.00  0.00     0.000 G0
ENDBRANCH  14  15
ENDBRANCH  13  14
ENDBRANCH  12  13
ENDBRANCH   1  12
TORSDOF 1
