REMARK SMILES Oc1ccc2c(c1)OC[C@@H]1c3cc4c(cc3O[C@H]21)OCO4
REMARK SMILES IDX 1 1 2 3 3 4 7 5 4 6 6 7 5 8 8 9 18 10 9 11 17 12 10 13 16 14
REMARK SMILES IDX 11 15 15 16 12 17 14 18 13 19 19 20 21 21 20 22
REMARK H PARENT 1 2
ROOT
ATOM      1  O   UNL     1       6.848  -0.225   0.000  1.00  0.00    -0.508 OA
ATOM      2  H   UNL     1       0.000   0.000   0.000  1.00  0.00     0.293 HD
ENDROOT
BRANCH   1   3
ATOM      3  C   UNL     1       5.349  -0.277   0.000  1.00  0.00     0.119 A 
ATOM      4  C   UNL     1       4.644  -1.602   0.000  1.00  0.00     0.047 A 
ATOM      5  C   UNL     1       4.554   0.995   0.000  1.00  0.00     0.093 A 
ATOM      6  C   UNL     1       3.145  -1.654   0.000  1.00  0.00     0.015 A 
ATOM      7  C   UNL     1       3.055   0.943   0.000  1.00  0.00     0.129 A 
ATOM      8  C   UNL     1       2.350  -0.382   0.000  1.00  0.00     0.035 A 
ATOM      9  O   UNL     1       2.260   2.215   0.000  1.00  0.00    -0.492 OA
ATOM     10  C   UNL     1       0.851  -0.434   0.000  1.00  0.00     0.218 C 
ATOM     11  C   UNL     1       0.761   2.163   0.000  1.00  0.00     0.242 C 
ATOM     12  O   UNL     1      -0.113  -1.583   0.000  1.00  0.00    -0.484 OA
ATOM     13  C   UNL     1       0.057   0.839   0.000  1.00  0.00     0.106 C 
ATOM     14  C   UNL     1      -1.504  -1.020   0.000  1.00  0.00     0.128 A 
ATOM     15  C   UNL     1      -1.399   0.476   0.000  1.00  0.00     0.009 A 
ATOM     16  C   UNL     1      -2.852  -1.678   0.000  1.00  0.00     0.097 A 
ATOM     17  C   UNL     1      -2.642   1.315   0.000  1.00  0.00     0.058 A 
ATOM     18  C   UNL     1      -4.096  -0.839   0.000  1.00  0.00     0.169 A 
ATOM     19  C   UNL     1      -3.991   0.658   0.000  1.00  0.00     0.166 A 
ATOM     20  O   UNL     1      -5.551  -1.201   0.000  1.00  0.00    -0.453 OA
ATOM     21  O   UNL     1      -5.381   1.220   0.000  1.00  0.00    -0.454 OA
ATOM     22  C   UNL     1      -6.346   0.071   0.000  1.00  0.00     0.468 C 
ENDBRANCH   1   3
TORSDOF 1
