REMARK SMILES COc1cc([C@@H]2c3c(cc(OC)c(O)c3OC)C[C@H](CO)[C@H]2CO[C@@H]2O[C@H](CO)[C@@H](O)[C@H](O)[C@H]2O)cc(OC)c1O
REMARK SMILES IDX 23 1 22 2 6 3 7 4 15 5 8 6 19 7 13 8 9 9 18 10 10 11 5 12
REMARK SMILES IDX 3 13 4 14 40 15 37 16 36 17 2 18 1 19 41 20 38 22 39 23
REMARK SMILES IDX 16 24 17 25 20 26 21 27 14 29 11 31 12 32 24 33 25 34 26 35
REMARK SMILES IDX 34 36 27 37 32 38 30 39 35 40 28 42 29 43 33 45 31 47
REMARK H PARENT 41 21 21 28 14 30 35 41 29 44 33 46 31 48
ROOT
ATOM      1  C   UNL     1      -1.195   0.752   0.000  1.00  0.00     0.168 C 
ENDROOT
BRANCH   1   2
ATOM      2  C   UNL     1       0.176   1.361   0.000  1.00  0.00     0.033 C 
ATOM      3  C   UNL     1       1.389   0.478   0.000  1.00  0.00     0.059 C 
ATOM      4  C   UNL     1       2.760   1.088   0.000  1.00  0.00     0.009 A 
ATOM      5  C   UNL     1       3.972   0.205   0.000  1.00  0.00     0.168 A 
ATOM      6  C   UNL     1       2.917   2.579   0.000  1.00  0.00    -0.036 A 
ATOM      7  C   UNL     1       0.334   2.853   0.000  1.00  0.00     0.025 C 
ATOM      8  C   UNL     1       5.343   0.814   0.000  1.00  0.00     0.201 A 
ATOM      9  C   UNL     1       4.288   3.188   0.000  1.00  0.00     0.054 A 
ATOM     10  C   UNL     1       1.704   3.462   0.000  1.00  0.00     0.042 C 
ATOM     11  C   UNL     1       5.501   2.306   0.000  1.00  0.00     0.164 A 
BRANCH   3  12
ATOM     12  C   UNL     1       1.231  -1.013   0.000  1.00  0.00    -0.032 A 
ATOM     13  C   UNL     1      -0.298  -3.114   0.000  1.00  0.00     0.164 A 
ATOM     14  C   UNL     1      -0.140  -1.622   0.000  1.00  0.00     0.055 A 
ATOM     15  C   UNL     1       0.915  -3.997   0.000  1.00  0.00     0.200 A 
ATOM     16  C   UNL     1       2.286  -3.387   0.000  1.00  0.00     0.164 A 
ATOM     17  C   UNL     1       2.444  -1.896   0.000  1.00  0.00     0.055 A 
BRANCH  13  18
ATOM     18  O   UNL     1      -1.668  -3.723   0.000  1.00  0.00    -0.493 OA
ATOM     19  C   UNL     1      -2.881  -2.841   0.000  1.00  0.00     0.278 C 
ENDBRANCH  13  18
BRANCH  15  20
ATOM     20  O   UNL     1       0.757  -5.488   0.000  1.00  0.00    -0.502 OA
ATOM     21  H   UNL     1       0.000   0.000   0.000  1.00  0.00     0.293 HD
ENDBRANCH  15  20
BRANCH  16  22
ATOM     22  O   UNL     1       3.499  -4.270   0.000  1.00  0.00    -0.493 OA
ATOM     23  C   UNL     1       3.341  -5.762   0.000  1.00  0.00     0.278 C 
ENDBRANCH  16  22
ENDBRANCH   3  12
BRANCH   5  24
ATOM     24  O   UNL     1       3.815  -1.287   0.000  1.00  0.00    -0.492 OA
ATOM     25  C   UNL     1       5.027  -2.169   0.000  1.00  0.00     0.278 C 
ENDBRANCH   5  24
BRANCH   7  26
ATOM     26  C   UNL     1      -0.879   3.735   0.000  1.00  0.00     0.160 C 
BRANCH  26  27
ATOM     27  O   UNL     1      -0.721   5.227   0.000  1.00  0.00    -0.396 OA
ATOM     28  H   UNL     1       0.000   0.000   0.000  1.00  0.00     0.210 HD
ENDBRANCH  26  27
ENDBRANCH   7  26
BRANCH   8  29
ATOM     29  O   UNL     1       6.556  -0.068   0.000  1.00  0.00    -0.502 OA
ATOM     30  H   UNL     1       0.000   0.000   0.000  1.00  0.00     0.293 HD
ENDBRANCH   8  29
BRANCH  11  31
ATOM     31  O   UNL     1       6.872   2.915   0.000  1.00  0.00    -0.493 OA
ATOM     32  C   UNL     1       7.030   4.407   0.000  1.00  0.00     0.278 C 
ENDBRANCH  11  31
ENDBRANCH   1   2
BRANCH   1  33
ATOM     33  O   UNL     1      -2.408   1.634   0.000  1.00  0.00    -0.350 OA
BRANCH  33  34
ATOM     34  C   UNL     1      -3.779   1.025   0.000  1.00  0.00     0.281 C 
ATOM     35  O   UNL     1      -4.991   1.908   0.000  1.00  0.00    -0.341 OA
ATOM     36  C   UNL     1      -3.936  -0.466   0.000  1.00  0.00     0.202 C 
ATOM     37  C   UNL     1      -6.362   1.299   0.000  1.00  0.00     0.178 C 
ATOM     38  C   UNL     1      -5.307  -1.076   0.000  1.00  0.00     0.179 C 
ATOM     39  C   UNL     1      -6.520  -0.193   0.000  1.00  0.00     0.177 C 
BRANCH  36  40
ATOM     40  O   UNL     1      -2.724  -1.349   0.000  1.00  0.00    -0.385 OA
ATOM     41  H   UNL     1       0.000   0.000   0.000  1.00  0.00     0.211 HD
ENDBRANCH  36  40
BRANCH  37  42
ATOM     42  C   UNL     1      -7.575   2.181   0.000  1.00  0.00     0.191 C 
BRANCH  42  43
ATOM     43  O   UNL     1      -7.417   3.673   0.000  1.00  0.00    -0.394 OA
ATOM     44  H   UNL     1       0.000   0.000   0.000  1.00  0.00     0.210 HD
ENDBRANCH  42  43
ENDBRANCH  37  42
BRANCH  38  45
ATOM     45  O   UNL     1      -5.465  -2.567   0.000  1.00  0.00    -0.387 OA
ATOM     46  H   UNL     1       0.000   0.000   0.000  1.00  0.00     0.211 HD
ENDBRANCH  38  45
BRANCH  39  47
ATOM     47  O   UNL     1      -7.891  -0.802   0.000  1.00  0.00    -0.387 OA
ATOM     48  H   UNL     1       0.000   0.000   0.000  1.00  0.00     0.211 HD
ENDBRANCH  39  47
ENDBRANCH  33  34
ENDBRANCH   1  33
TORSDOF 17
