REMARK SMILES CCCc1cc(OC)c(O)c([C@H](C)Cc2ccc3c(c2)OCO3)c1
REMARK SMILES IDX 4 1 5 2 6 3 9 4 11 5 24 6 3 7 2 8 1 9 7 10 8 11 12 12 13 13
REMARK SMILES IDX 14 14 15 15 16 16 20 17 17 18 19 19 18 20 21 21 23 22 22 23
REMARK SMILES IDX 10 24
REMARK H PARENT 10 25
ROOT
ATOM      1  C   UNL     1       3.967   0.862   0.000  1.00  0.00    -0.044 A 
ATOM      2  C   UNL     1       4.331  -0.593   0.000  1.00  0.00     0.054 A 
ATOM      3  C   UNL     1       3.252  -1.635   0.000  1.00  0.00     0.161 A 
ATOM      4  C   UNL     1       1.810  -1.223   0.000  1.00  0.00     0.161 A 
ATOM      5  C   UNL     1       1.447   0.233   0.000  1.00  0.00     0.001 A 
ATOM      6  C   UNL     1       2.525   1.275   0.000  1.00  0.00     0.011 A 
ENDROOT
BRANCH   1   7
ATOM      7  C   UNL     1       5.046   1.905   0.000  1.00  0.00     0.035 C 
BRANCH   7   8
ATOM      8  C   UNL     1       6.488   1.492   0.000  1.00  0.00     0.001 C 
ATOM      9  C   UNL     1       7.566   2.535   0.000  1.00  0.00     0.004 C 
ENDBRANCH   7   8
ENDBRANCH   1   7
BRANCH   3  10
ATOM     10  O   UNL     1       3.616  -3.091   0.000  1.00  0.00    -0.493 OA
ATOM     11  C   UNL     1       5.058  -3.503   0.000  1.00  0.00     0.278 C 
ENDBRANCH   3  10
BRANCH   5  12
ATOM     12  C   UNL     1       0.005   0.645   0.000  1.00  0.00     0.024 C 
ATOM     13  C   UNL     1      -0.359   2.101   0.000  1.00  0.00     0.013 C 
BRANCH  12  14
ATOM     14  C   UNL     1      -1.074  -0.397   0.000  1.00  0.00     0.043 C 
BRANCH  14  15
ATOM     15  C   UNL     1      -2.516   0.016   0.000  1.00  0.00    -0.043 A 
ATOM     16  C   UNL     1      -2.880   1.471   0.000  1.00  0.00     0.008 A 
ATOM     17  C   UNL     1      -3.595  -1.027   0.000  1.00  0.00     0.054 A 
ATOM     18  C   UNL     1      -4.322   1.884   0.000  1.00  0.00     0.051 A 
ATOM     19  C   UNL     1      -5.037  -0.614   0.000  1.00  0.00     0.166 A 
ATOM     20  C   UNL     1      -5.400   0.841   0.000  1.00  0.00     0.165 A 
ATOM     21  O   UNL     1      -6.308  -1.410   0.000  1.00  0.00    -0.454 OA
ATOM     22  O   UNL     1      -6.896   0.945   0.000  1.00  0.00    -0.454 OA
ATOM     23  C   UNL     1      -7.458  -0.446   0.000  1.00  0.00     0.468 C 
ENDBRANCH  14  15
ENDBRANCH  12  14
ENDBRANCH   5  12
BRANCH   4  24
ATOM     24  O   UNL     1       0.732  -2.265   0.000  1.00  0.00    -0.504 OA
ATOM     25  H   UNL     1       0.000   0.000   0.000  1.00  0.00     0.293 HD
ENDBRANCH   4  24
TORSDOF 7
