REMARK SMILES C=C[C@H]1[C@H](O[C@@H]2O[C@H](CO)[C@@H](O)[C@H](O)[C@H]2OC(=O)/C=C/c2ccc(O)c(O)c2)OC=C(C(=O)O)[C@H]1CCO
REMARK SMILES IDX 6 1 7 2 8 3 11 4 13 5 15 6 5 7 4 8 3 9 35 10 29 11 31 12
REMARK SMILES IDX 30 13 2 14 1 15 36 16 37 17 38 18 32 20 33 21 34 22 16 24
REMARK SMILES IDX 17 25 18 26 19 27 20 28 21 29 22 30 28 31 23 32 26 33 24 34
REMARK SMILES IDX 27 35 25 37 9 39 10 40 14 42 12 44
REMARK H PARENT 38 19 34 23 27 36 25 38 10 41 14 43 12 45
ROOT
ATOM      1  C   UNL     1       1.195   1.559   0.000  1.00  0.00     0.298 C 
ATOM      2  O   UNL     1       2.301   2.572   0.000  1.00  0.00    -0.340 OA
ATOM      3  C   UNL     1       1.977   4.036   0.000  1.00  0.00     0.178 C 
ATOM      4  C   UNL     1       0.547   4.488   0.000  1.00  0.00     0.178 C 
ATOM      5  C   UNL     1      -0.559   3.474   0.000  1.00  0.00     0.192 C 
ATOM      6  C   UNL     1      -0.235   2.010   0.000  1.00  0.00     0.264 C 
ENDROOT
BRANCH   1   7
ATOM      7  O   UNL     1       1.520   0.094   0.000  1.00  0.00    -0.309 OA
BRANCH   7   8
ATOM      8  C   UNL     1       2.950  -0.357   0.000  1.00  0.00     0.316 C 
ATOM      9  C   UNL     1       3.275  -1.822   0.000  1.00  0.00     0.088 C 
ATOM     10  C   UNL     1       4.705  -2.273   0.000  1.00  0.00     0.045 C 
ATOM     11  O   UNL     1       4.056   0.656   0.000  1.00  0.00    -0.471 OA
ATOM     12  C   UNL     1       5.811  -1.260   0.000  1.00  0.00     0.076 C 
ATOM     13  C   UNL     1       5.487   0.205   0.000  1.00  0.00     0.202 C 
BRANCH   9  14
ATOM     14  C   UNL     1       2.169  -2.835   0.000  1.00  0.00    -0.024 C 
ATOM     15  C   UNL     1       0.738  -2.384   0.000  1.00  0.00     0.004 C 
ENDBRANCH   9  14
BRANCH  10  16
ATOM     16  C   UNL     1       5.029  -3.738   0.000  1.00  0.00     0.038 C 
BRANCH  16  17
ATOM     17  C   UNL     1       3.923  -4.751   0.000  1.00  0.00     0.156 C 
BRANCH  17  18
ATOM     18  O   UNL     1       4.248  -6.215   0.000  1.00  0.00    -0.396 OA
ATOM     19  H   UNL     1       0.000   0.000   0.000  1.00  0.00     0.210 HD
ENDBRANCH  17  18
ENDBRANCH  16  17
ENDBRANCH  10  16
BRANCH  12  20
ATOM     20  C   UNL     1       7.242  -1.711   0.000  1.00  0.00     0.334 C 
ATOM     21  O   UNL     1       7.566  -3.176   0.000  1.00  0.00    -0.247 OA
BRANCH  20  22
ATOM     22  O   UNL     1       8.348  -0.698   0.000  1.00  0.00    -0.478 OA
ATOM     23  H   UNL     1       0.000   0.000   0.000  1.00  0.00     0.297 HD
ENDBRANCH  20  22
ENDBRANCH  12  20
ENDBRANCH   7   8
ENDBRANCH   1   7
BRANCH   6  24
ATOM     24  O   UNL     1      -1.341   0.997   0.000  1.00  0.00    -0.451 OA
BRANCH  24  25
ATOM     25  C   UNL     1      -2.772   1.448   0.000  1.00  0.00     0.331 C 
ATOM     26  O   UNL     1      -3.096   2.913   0.000  1.00  0.00    -0.247 OA
BRANCH  25  27
ATOM     27  C   UNL     1      -3.878   0.435   0.000  1.00  0.00     0.094 C 
BRANCH  27  28
ATOM     28  C   UNL     1      -5.308   0.886   0.000  1.00  0.00     0.016 C 
BRANCH  28  29
ATOM     29  C   UNL     1      -6.414  -0.127   0.000  1.00  0.00    -0.021 A 
ATOM     30  C   UNL     1      -7.845   0.324   0.000  1.00  0.00     0.012 A 
ATOM     31  C   UNL     1      -6.090  -1.591   0.000  1.00  0.00     0.058 A 
ATOM     32  C   UNL     1      -8.951  -0.689   0.000  1.00  0.00     0.051 A 
ATOM     33  C   UNL     1      -7.196  -2.605   0.000  1.00  0.00     0.157 A 
ATOM     34  C   UNL     1      -8.627  -2.153   0.000  1.00  0.00     0.157 A 
BRANCH  33  35
ATOM     35  O   UNL     1      -6.872  -4.069   0.000  1.00  0.00    -0.504 OA
ATOM     36  H   UNL     1       0.000   0.000   0.000  1.00  0.00     0.293 HD
ENDBRANCH  33  35
BRANCH  34  37
ATOM     37  O   UNL     1      -9.733  -3.167   0.000  1.00  0.00    -0.504 OA
ATOM     38  H   UNL     1       0.000   0.000   0.000  1.00  0.00     0.293 HD
ENDBRANCH  34  37
ENDBRANCH  28  29
ENDBRANCH  27  28
ENDBRANCH  25  27
ENDBRANCH  24  25
ENDBRANCH   6  24
BRANCH   3  39
ATOM     39  C   UNL     1       3.083   5.049   0.000  1.00  0.00     0.191 C 
BRANCH  39  40
ATOM     40  O   UNL     1       4.514   4.598   0.000  1.00  0.00    -0.394 OA
ATOM     41  H   UNL     1       0.000   0.000   0.000  1.00  0.00     0.210 HD
ENDBRANCH  39  40
ENDBRANCH   3  39
BRANCH   5  42
ATOM     42  O   UNL     1      -1.990   3.926   0.000  1.00  0.00    -0.386 OA
ATOM     43  H   UNL     1       0.000   0.000   0.000  1.00  0.00     0.211 HD
ENDBRANCH   5  42
BRANCH   4  44
ATOM     44  O   UNL     1       0.222   5.952   0.000  1.00  0.00    -0.387 OA
ATOM     45  H   UNL     1       0.000   0.000   0.000  1.00  0.00     0.211 HD
ENDBRANCH   4  44
TORSDOF 19
