REMARK SMILES COC(=O)[C@@]1(C)C(=O)C=C[C@@]2(C)C1=C(O)C(=O)[C@@]1(C)C3=CC[C@@H](c4ccoc4)[C@]3(C)[C@@H](OC(=O)C(C)C)[C@H](OC(C)=O)[C@@H]12
REMARK SMILES IDX 5 1 6 2 7 3 8 4 9 5 10 6 11 7 12 8 13 9 14 10 16 11 17 12
REMARK SMILES IDX 18 13 19 14 20 15 21 16 22 17 23 18 29 19 30 20 31 21 38 22
REMARK SMILES IDX 43 23 3 24 4 25 2 26 1 27 15 28 39 30 40 31 41 32 42 33
REMARK SMILES IDX 32 34 33 35 34 36 35 37 36 38 37 39 24 40 28 41 25 42 27 43
REMARK SMILES IDX 26 44
REMARK H PARENT 15 29
ROOT
ATOM      1  C   UNL     1       4.650   0.292   0.000  1.00  0.00     0.153 C 
ATOM      2  C   UNL     1       5.068  -1.148   0.000  1.00  0.00     0.038 C 
ATOM      3  C   UNL     1       4.750   1.789   0.000  1.00  0.00     0.176 C 
ATOM      4  O   UNL     1       6.006   2.610   0.000  1.00  0.00    -0.293 OA
ATOM      5  C   UNL     1       3.504   2.624   0.000  1.00  0.00     0.045 C 
ATOM      6  C   UNL     1       2.158   1.962   0.000  1.00  0.00    -0.012 C 
ATOM      7  C   UNL     1       2.058   0.466   0.000  1.00  0.00     0.020 C 
ATOM      8  C   UNL     1       0.812   1.301   0.000  1.00  0.00     0.021 C 
ATOM      9  C   UNL     1       3.304  -0.369   0.000  1.00  0.00     0.010 C 
ATOM     10  C   UNL     1       3.204  -1.866   0.000  1.00  0.00     0.161 C 
ATOM     11  C   UNL     1       1.858  -2.527   0.000  1.00  0.00     0.207 C 
ATOM     12  O   UNL     1       1.758  -4.024   0.000  1.00  0.00    -0.290 OA
ATOM     13  C   UNL     1       0.612  -1.692   0.000  1.00  0.00     0.063 C 
ATOM     14  C   UNL     1       0.511  -3.189   0.000  1.00  0.00     0.025 C 
ATOM     15  C   UNL     1      -0.735  -2.354   0.000  1.00  0.00    -0.050 C 
ATOM     16  C   UNL     1      -1.144  -3.797   0.000  1.00  0.00    -0.025 C 
ATOM     17  C   UNL     1      -2.643  -3.854   0.000  1.00  0.00     0.037 C 
ATOM     18  C   UNL     1      -3.160  -2.446   0.000  1.00  0.00     0.040 C 
ATOM     19  C   UNL     1      -1.981  -1.519   0.000  1.00  0.00     0.037 C 
ATOM     20  C   UNL     1      -3.307  -0.819   0.000  1.00  0.00     0.021 C 
ATOM     21  C   UNL     1      -1.881  -0.022   0.000  1.00  0.00     0.228 C 
ATOM     22  C   UNL     1      -0.534   0.639   0.000  1.00  0.00     0.223 C 
ATOM     23  C   UNL     1       0.712  -0.196   0.000  1.00  0.00     0.066 C 
ENDROOT
BRANCH   1  24
ATOM     24  C   UNL     1       6.141   0.454   0.000  1.00  0.00     0.323 C 
ATOM     25  O   UNL     1       6.910   1.742   0.000  1.00  0.00    -0.251 OA
BRANCH  24  26
ATOM     26  O   UNL     1       7.027  -0.757   0.000  1.00  0.00    -0.468 OA
ATOM     27  C   UNL     1       8.518  -0.596   0.000  1.00  0.00     0.282 C 
ENDBRANCH  24  26
ENDBRANCH   1  24
BRANCH  10  28
ATOM     28  O   UNL     1       4.450  -2.701   0.000  1.00  0.00    -0.504 OA
ATOM     29  H   UNL     1       0.000   0.000   0.000  1.00  0.00     0.293 HD
ENDBRANCH  10  28
BRANCH  22  30
ATOM     30  O   UNL     1      -0.434   2.136   0.000  1.00  0.00    -0.458 OA
BRANCH  30  31
ATOM     31  C   UNL     1      -1.680   2.971   0.000  1.00  0.00     0.303 C 
ATOM     32  C   UNL     1      -1.580   4.468   0.000  1.00  0.00     0.139 C 
ATOM     33  O   UNL     1      -3.147   2.655   0.000  1.00  0.00    -0.253 OA
ENDBRANCH  30  31
ENDBRANCH  22  30
BRANCH  21  34
ATOM     34  O   UNL     1      -3.127   0.813   0.000  1.00  0.00    -0.457 OA
BRANCH  34  35
ATOM     35  C   UNL     1      -3.026   2.309   0.000  1.00  0.00     0.308 C 
ATOM     36  O   UNL     1      -2.417   2.824   0.000  1.00  0.00    -0.252 OA
BRANCH  35  37
ATOM     37  C   UNL     1      -4.273   3.144   0.000  1.00  0.00     0.093 C 
ATOM     38  C   UNL     1      -4.172   4.641   0.000  1.00  0.00     0.019 C 
ATOM     39  C   UNL     1      -5.619   2.483   0.000  1.00  0.00     0.019 C 
ENDBRANCH  35  37
ENDBRANCH  34  35
ENDBRANCH  21  34
BRANCH  18  40
ATOM     40  C   UNL     1      -4.603  -2.037   0.000  1.00  0.00    -0.005 A 
ATOM     41  C   UNL     1      -5.782  -2.964   0.000  1.00  0.00     0.198 A 
ATOM     42  C   UNL     1      -5.120  -0.629   0.000  1.00  0.00     0.046 A 
ATOM     43  O   UNL     1      -7.028  -2.129   0.000  1.00  0.00    -0.472 OA
ATOM     44  C   UNL     1      -6.619  -0.686   0.000  1.00  0.00     0.195 A 
ENDBRANCH  18  40
TORSDOF 9
