REMARK SMILES COC(=O)C[C@H]1C(C)(C)[C@@H]2O[C@@]34C[C@@H]2C(=O)[C@]1(C)[C@@H]3CC[C@@]1(C)[C@H](c2ccoc2)OC(=O)C[C@]14O
REMARK SMILES IDX 5 1 3 2 4 3 2 4 1 5 6 6 7 7 17 8 10 9 15 10 19 11 11 12
REMARK SMILES IDX 14 13 20 14 12 15 13 16 21 17 34 18 22 19 33 20 24 21 31 22
REMARK SMILES IDX 30 23 8 24 9 25 18 26 16 27 23 28 32 29 35 30 25 32 29 33
REMARK SMILES IDX 26 34 28 35 27 36
REMARK H PARENT 35 31
ROOT
ATOM      1  C   UNL     1       4.835  -0.811   0.000  1.00  0.00     0.128 C 
ENDROOT
BRANCH   1   2
ATOM      2  C   UNL     1       4.441  -2.258   0.000  1.00  0.00     0.305 C 
ATOM      3  O   UNL     1       2.991  -2.641   0.000  1.00  0.00    -0.252 OA
BRANCH   2   4
ATOM      4  O   UNL     1       5.498  -3.323   0.000  1.00  0.00    -0.469 OA
ATOM      5  C   UNL     1       5.105  -4.770   0.000  1.00  0.00     0.282 C 
ENDBRANCH   2   4
ENDBRANCH   1   2
BRANCH   1   6
ATOM      6  C   UNL     1       3.778   0.254   0.000  1.00  0.00     0.022 C 
ATOM      7  C   UNL     1       2.328  -0.129   0.000  1.00  0.00    -0.004 C 
ATOM      8  C   UNL     1       4.171   1.701   0.000  1.00  0.00     0.036 C 
ATOM      9  C   UNL     1       1.271   0.935   0.000  1.00  0.00     0.135 C 
ATOM     10  C   UNL     1       3.114   2.766   0.000  1.00  0.00     0.145 C 
ATOM     11  C   UNL     1       0.445   1.372   0.000  1.00  0.00     0.038 C 
ATOM     12  O   UNL     1      -0.228   0.862   0.000  1.00  0.00    -0.367 OA
ATOM     13  C   UNL     1       1.664   2.383   0.000  1.00  0.00     0.089 C 
ATOM     14  C   UNL     1       0.275  -0.119   0.000  1.00  0.00     0.008 C 
ATOM     15  C   UNL     1      -0.760   2.264   0.000  1.00  0.00     0.103 C 
ATOM     16  C   UNL     1       0.409   3.204   0.000  1.00  0.00     0.053 C 
ATOM     17  C   UNL     1      -1.100  -0.717   0.000  1.00  0.00     0.014 C 
ATOM     18  C   UNL     1      -2.136   1.666   0.000  1.00  0.00     0.114 C 
ATOM     19  C   UNL     1      -2.306   0.176   0.000  1.00  0.00     0.041 C 
ATOM     20  C   UNL     1      -3.341   2.559   0.000  1.00  0.00     0.161 C 
ATOM     21  C   UNL     1      -3.682  -0.422   0.000  1.00  0.00     0.219 C 
ATOM     22  C   UNL     1      -4.717   1.961   0.000  1.00  0.00     0.309 C 
ATOM     23  O   UNL     1      -4.887   0.471   0.000  1.00  0.00    -0.457 OA
ATOM     24  C   UNL     1       2.957  -1.491   0.000  1.00  0.00     0.014 C 
ATOM     25  C   UNL     1       1.096  -0.985   0.000  1.00  0.00     0.014 C 
ATOM     26  C   UNL     1       5.621   2.084   0.000  1.00  0.00     0.020 C 
ATOM     27  O   UNL     1       3.507   4.213   0.000  1.00  0.00    -0.299 OA
ATOM     28  C   UNL     1      -2.476  -1.314   0.000  1.00  0.00     0.019 C 
ATOM     29  O   UNL     1      -5.923   2.853   0.000  1.00  0.00    -0.252 OA
BRANCH  18  30
ATOM     30  O   UNL     1      -1.966   3.157   0.000  1.00  0.00    -0.386 OA
ATOM     31  H   UNL     1       0.000   0.000   0.000  1.00  0.00     0.211 HD
ENDBRANCH  18  30
BRANCH  21  32
ATOM     32  C   UNL     1      -3.852  -1.912   0.000  1.00  0.00     0.031 A 
ATOM     33  C   UNL     1      -2.746  -2.926   0.000  1.00  0.00     0.202 A 
ATOM     34  C   UNL     1      -5.157  -2.651   0.000  1.00  0.00     0.049 A 
ATOM     35  O   UNL     1      -3.369  -4.291   0.000  1.00  0.00    -0.472 OA
ATOM     36  C   UNL     1      -4.859  -4.120   0.000  1.00  0.00     0.195 A 
ENDBRANCH  21  32
ENDBRANCH   1   6
TORSDOF 5
