REMARK SMILES CC(C)=CCCC(C)=CCOc1cc(C(=O)O)ccc1O
REMARK SMILES IDX 9 1 7 2 8 3 6 4 5 5 4 6 2 7 1 8 3 9 10 10 11 11 12 12 13 13
REMARK SMILES IDX 20 14 14 15 19 16 18 17 21 18 15 20 16 21 17 22
REMARK H PARENT 21 19 17 23
ROOT
ATOM      1  C   UNL     1      -0.954  -2.685   0.000  1.00  0.00     0.013 C 
ENDROOT
BRANCH   1   2
ATOM      2  C   UNL     1      -2.391  -2.254   0.000  1.00  0.00    -0.074 C 
ATOM      3  C   UNL     1      -3.482  -3.283   0.000  1.00  0.00     0.039 C 
BRANCH   2   4
ATOM      4  C   UNL     1      -2.736  -0.794   0.000  1.00  0.00     0.034 C 
BRANCH   4   5
ATOM      5  C   UNL     1      -4.173  -0.363   0.000  1.00  0.00     0.032 C 
BRANCH   5   6
ATOM      6  C   UNL     1      -4.518   1.096   0.000  1.00  0.00    -0.028 C 
BRANCH   6   7
ATOM      7  C   UNL     1      -5.955   1.527   0.000  1.00  0.00    -0.080 C 
ATOM      8  C   UNL     1      -6.301   2.987   0.000  1.00  0.00     0.039 C 
ATOM      9  C   UNL     1      -7.047   0.498   0.000  1.00  0.00     0.039 C 
ENDBRANCH   6   7
ENDBRANCH   5   6
ENDBRANCH   4   5
ENDBRANCH   2   4
ENDBRANCH   1   2
BRANCH   1  10
ATOM     10  C   UNL     1       0.137  -1.656   0.000  1.00  0.00     0.257 C 
BRANCH  10  11
ATOM     11  O   UNL     1       1.574  -2.087   0.000  1.00  0.00    -0.486 OA
BRANCH  11  12
ATOM     12  C   UNL     1       2.666  -1.058   0.000  1.00  0.00     0.162 A 
ATOM     13  C   UNL     1       2.320   0.402   0.000  1.00  0.00     0.066 A 
ATOM     14  C   UNL     1       4.103  -1.488   0.000  1.00  0.00     0.157 A 
ATOM     15  C   UNL     1       3.412   1.431   0.000  1.00  0.00     0.063 A 
ATOM     16  C   UNL     1       5.194  -0.459   0.000  1.00  0.00     0.051 A 
ATOM     17  C   UNL     1       4.849   1.000   0.000  1.00  0.00     0.020 A 
BRANCH  14  18
ATOM     18  O   UNL     1       4.448  -2.948   0.000  1.00  0.00    -0.504 OA
ATOM     19  H   UNL     1       0.000   0.000   0.000  1.00  0.00     0.293 HD
ENDBRANCH  14  18
BRANCH  15  20
ATOM     20  C   UNL     1       3.067   2.891   0.000  1.00  0.00     0.335 C 
ATOM     21  O   UNL     1       1.630   3.322   0.000  1.00  0.00    -0.246 OA
BRANCH  20  22
ATOM     22  O   UNL     1       4.158   3.920   0.000  1.00  0.00    -0.478 OA
ATOM     23  H   UNL     1       0.000   0.000   0.000  1.00  0.00     0.297 HD
ENDBRANCH  20  22
ENDBRANCH  15  20
ENDBRANCH  11  12
ENDBRANCH  10  11
ENDBRANCH   1  10
TORSDOF 11
