REMARK SMILES COc1cc(/C=C/C(=O)O[C@@H]2O[C@H](CO)[C@@H](O)[C@H](O)[C@H]2O)ccc1O
REMARK SMILES IDX 8 1 9 2 7 3 6 4 5 5 3 6 4 7 24 8 23 9 22 10 2 11 1 12 25 13
REMARK SMILES IDX 10 15 11 16 12 17 20 18 13 19 18 20 16 21 21 22 14 24 15 25
REMARK SMILES IDX 19 27 17 29
REMARK H PARENT 25 14 21 23 15 26 19 28 17 30
ROOT
ATOM      1  C   UNL     1      -0.364   0.029   0.000  1.00  0.00     0.333 C 
ATOM      2  O   UNL     1      -0.607  -1.451   0.000  1.00  0.00    -0.247 OA
ENDROOT
BRANCH   1   3
ATOM      3  C   UNL     1       1.040   0.559   0.000  1.00  0.00     0.094 C 
BRANCH   3   4
ATOM      4  C   UNL     1       2.200  -0.391   0.000  1.00  0.00     0.016 C 
BRANCH   4   5
ATOM      5  C   UNL     1       3.603   0.139   0.000  1.00  0.00    -0.021 A 
ATOM      6  C   UNL     1       6.167  -0.282   0.000  1.00  0.00     0.161 A 
ATOM      7  C   UNL     1       4.764  -0.812   0.000  1.00  0.00     0.058 A 
ATOM      8  C   UNL     1       6.410   1.198   0.000  1.00  0.00     0.157 A 
ATOM      9  C   UNL     1       5.249   2.149   0.000  1.00  0.00     0.051 A 
ATOM     10  C   UNL     1       3.846   1.619   0.000  1.00  0.00     0.012 A 
BRANCH   6  11
ATOM     11  O   UNL     1       7.328  -1.232   0.000  1.00  0.00    -0.493 OA
ATOM     12  C   UNL     1       7.085  -2.713   0.000  1.00  0.00     0.278 C 
ENDBRANCH   6  11
BRANCH   8  13
ATOM     13  O   UNL     1       7.813   1.728   0.000  1.00  0.00    -0.504 OA
ATOM     14  H   UNL     1       0.000   0.000   0.000  1.00  0.00     0.293 HD
ENDBRANCH   8  13
ENDBRANCH   4   5
ENDBRANCH   3   4
ENDBRANCH   1   3
BRANCH   1  15
ATOM     15  O   UNL     1      -1.524   0.980   0.000  1.00  0.00    -0.430 OA
BRANCH  15  16
ATOM     16  C   UNL     1      -2.928   0.450   0.000  1.00  0.00     0.343 C 
ATOM     17  O   UNL     1      -4.088   1.400   0.000  1.00  0.00    -0.332 OA
ATOM     18  C   UNL     1      -3.170  -1.030   0.000  1.00  0.00     0.214 C 
ATOM     19  C   UNL     1      -5.491   0.870   0.000  1.00  0.00     0.179 C 
ATOM     20  C   UNL     1      -4.574  -1.560   0.000  1.00  0.00     0.180 C 
ATOM     21  C   UNL     1      -5.734  -0.610   0.000  1.00  0.00     0.177 C 
BRANCH  18  22
ATOM     22  O   UNL     1      -2.010  -1.981   0.000  1.00  0.00    -0.384 OA
ATOM     23  H   UNL     1       0.000   0.000   0.000  1.00  0.00     0.211 HD
ENDBRANCH  18  22
BRANCH  19  24
ATOM     24  C   UNL     1      -6.652   1.821   0.000  1.00  0.00     0.191 C 
BRANCH  24  25
ATOM     25  O   UNL     1      -6.409   3.301   0.000  1.00  0.00    -0.394 OA
ATOM     26  H   UNL     1       0.000   0.000   0.000  1.00  0.00     0.210 HD
ENDBRANCH  24  25
ENDBRANCH  19  24
BRANCH  20  27
ATOM     27  O   UNL     1      -4.816  -3.041   0.000  1.00  0.00    -0.387 OA
ATOM     28  H   UNL     1       0.000   0.000   0.000  1.00  0.00     0.211 HD
ENDBRANCH  20  27
BRANCH  21  29
ATOM     29  O   UNL     1      -7.138  -1.140   0.000  1.00  0.00    -0.387 OA
ATOM     30  H   UNL     1       0.000   0.000   0.000  1.00  0.00     0.211 HD
ENDBRANCH  21  29
ENDBRANCH  15  16
ENDBRANCH   1  15
TORSDOF 12
