REMARK SMILES CC(C)=CCc1c(O)cc2c(c1O)c(=O)c1c(CC=C(C)C)ccc(O)c1n2C
REMARK SMILES IDX 6 1 7 2 9 3 10 4 11 5 12 6 14 7 15 8 16 9 17 10 23 11 24 12
REMARK SMILES IDX 25 13 27 14 28 15 29 16 5 17 4 18 2 19 1 20 3 21 8 22 13 24
REMARK SMILES IDX 18 26 19 27 20 28 21 29 22 30 26 31
REMARK H PARENT 8 23 13 25 26 32
ROOT
ATOM      1  C   UNL     1      -3.095  -0.231   0.000  1.00  0.00     0.040 A 
ATOM      2  C   UNL     1      -3.344   1.248   0.000  1.00  0.00     0.124 A 
ATOM      3  C   UNL     1      -2.187   2.203   0.000  1.00  0.00     0.073 A 
ATOM      4  C   UNL     1      -0.781   1.678   0.000  1.00  0.00     0.060 A 
ATOM      5  C   UNL     1      -0.533   0.199   0.000  1.00  0.00     0.089 A 
ATOM      6  C   UNL     1      -1.690  -0.756   0.000  1.00  0.00     0.136 A 
ATOM      7  C   UNL     1       0.872  -0.326   0.000  1.00  0.00     0.201 A 
ATOM      8  O   UNL     1       1.121  -1.805   0.000  1.00  0.00    -0.288 OA
ATOM      9  C   UNL     1       2.029   0.629   0.000  1.00  0.00     0.054 A 
ATOM     10  C   UNL     1       3.434   0.105   0.000  1.00  0.00    -0.031 A 
ATOM     11  C   UNL     1       4.591   1.059   0.000  1.00  0.00     0.009 A 
ATOM     12  C   UNL     1       4.343   2.539   0.000  1.00  0.00     0.049 A 
ATOM     13  C   UNL     1       2.938   3.063   0.000  1.00  0.00     0.140 A 
ATOM     14  C   UNL     1       1.781   2.108   0.000  1.00  0.00     0.095 A 
ATOM     15  N   UNL     1       0.376   2.633   0.000  1.00  0.00    -0.340 N 
ATOM     16  C   UNL     1       0.127   4.112   0.000  1.00  0.00     0.150 C 
ENDROOT
BRANCH   1  17
ATOM     17  C   UNL     1      -4.252  -1.186   0.000  1.00  0.00     0.070 C 
BRANCH  17  18
ATOM     18  C   UNL     1      -5.657  -0.661   0.000  1.00  0.00    -0.023 C 
BRANCH  18  19
ATOM     19  C   UNL     1      -6.814  -1.616   0.000  1.00  0.00    -0.080 C 
ATOM     20  C   UNL     1      -8.220  -1.091   0.000  1.00  0.00     0.039 C 
ATOM     21  C   UNL     1      -6.566  -3.095   0.000  1.00  0.00     0.039 C 
ENDBRANCH  18  19
ENDBRANCH  17  18
ENDBRANCH   1  17
BRANCH   2  22
ATOM     22  O   UNL     1      -4.749   1.773   0.000  1.00  0.00    -0.507 OA
ATOM     23  H   UNL     1       0.000   0.000   0.000  1.00  0.00     0.293 HD
ENDBRANCH   2  22
BRANCH   6  24
ATOM     24  O   UNL     1      -1.442  -2.235   0.000  1.00  0.00    -0.507 OA
ATOM     25  H   UNL     1       0.000   0.000   0.000  1.00  0.00     0.293 HD
ENDBRANCH   6  24
BRANCH  10  26
ATOM     26  C   UNL     1       3.683  -1.375   0.000  1.00  0.00     0.063 C 
BRANCH  26  27
ATOM     27  C   UNL     1       5.088  -1.899   0.000  1.00  0.00    -0.024 C 
BRANCH  27  28
ATOM     28  C   UNL     1       5.337  -3.379   0.000  1.00  0.00    -0.080 C 
ATOM     29  C   UNL     1       6.742  -3.903   0.000  1.00  0.00     0.039 C 
ATOM     30  C   UNL     1       4.179  -4.333   0.000  1.00  0.00     0.039 C 
ENDBRANCH  27  28
ENDBRANCH  26  27
ENDBRANCH  10  26
BRANCH  13  31
ATOM     31  O   UNL     1       2.689   4.543   0.000  1.00  0.00    -0.506 OA
ATOM     32  H   UNL     1       0.000   0.000   0.000  1.00  0.00     0.293 HD
ENDBRANCH  13  31
TORSDOF 9
