REMARK SMILES O=c1cc(-c2ccc(O)cc2)oc2c([C@@H]3OC[C@H](O)[C@H](O)[C@H]3O)c(O)c([C@@H]3O[C@H](CO)[C@@H](O)[C@H](O)[C@H]3O)c(O)c12
REMARK SMILES IDX 1 1 2 2 3 3 4 4 12 5 13 6 14 7 24 8 26 9 38 10 40 11 5 12
REMARK SMILES IDX 6 13 11 14 7 15 10 16 8 17 9 18 39 20 27 22 28 23 36 24
REMARK SMILES IDX 29 25 34 26 32 27 37 28 30 30 31 31 35 33 33 35 15 37 16 38
REMARK SMILES IDX 22 39 17 40 20 41 18 42 23 43 21 45 19 47 25 49
REMARK H PARENT 9 19 39 21 37 29 31 32 35 34 33 36 23 44 21 46 19 48 25 50
ROOT
ATOM      1  O   UNL     1       0.175  -4.251   0.000  1.00  0.00    -0.289 OA
ATOM      2  C   UNL     1      -0.622  -2.980   0.000  1.00  0.00     0.197 A 
ATOM      3  C   UNL     1      -2.121  -3.035   0.000  1.00  0.00     0.100 A 
ATOM      4  C   UNL     1      -2.918  -1.765   0.000  1.00  0.00     0.138 A 
ATOM      5  O   UNL     1      -2.217  -0.439   0.000  1.00  0.00    -0.455 OA
ATOM      6  C   UNL     1      -0.718  -0.384   0.000  1.00  0.00     0.152 A 
ATOM      7  C   UNL     1      -0.016   0.942   0.000  1.00  0.00     0.069 A 
ATOM      8  C   UNL     1       1.483   0.997   0.000  1.00  0.00     0.134 A 
ATOM      9  C   UNL     1       2.280  -0.273   0.000  1.00  0.00     0.068 A 
ATOM     10  C   UNL     1       1.579  -1.599   0.000  1.00  0.00     0.140 A 
ATOM     11  C   UNL     1       0.080  -1.655   0.000  1.00  0.00     0.107 A 
ENDROOT
BRANCH   4  12
ATOM     12  C   UNL     1      -4.417  -1.820   0.000  1.00  0.00     0.018 A 
ATOM     13  C   UNL     1      -5.215  -0.550   0.000  1.00  0.00     0.016 A 
ATOM     14  C   UNL     1      -5.119  -3.146   0.000  1.00  0.00     0.016 A 
ATOM     15  C   UNL     1      -6.713  -0.605   0.000  1.00  0.00     0.047 A 
ATOM     16  C   UNL     1      -6.618  -3.201   0.000  1.00  0.00     0.047 A 
ATOM     17  C   UNL     1      -7.415  -1.931   0.000  1.00  0.00     0.115 A 
BRANCH  17  18
ATOM     18  O   UNL     1      -8.914  -1.986   0.000  1.00  0.00    -0.508 OA
ATOM     19  H   UNL     1       0.000   0.000   0.000  1.00  0.00     0.293 HD
ENDBRANCH  17  18
ENDBRANCH   4  12
BRANCH  10  20
ATOM     20  O   UNL     1       2.376  -2.870   0.000  1.00  0.00    -0.506 OA
ATOM     21  H   UNL     1       0.000   0.000   0.000  1.00  0.00     0.293 HD
ENDBRANCH  10  20
BRANCH   9  22
ATOM     22  C   UNL     1       3.779  -0.218   0.000  1.00  0.00     0.188 C 
ATOM     23  O   UNL     1       4.577  -1.489   0.000  1.00  0.00    -0.362 OA
ATOM     24  C   UNL     1       4.481   1.108   0.000  1.00  0.00     0.179 C 
ATOM     25  C   UNL     1       6.076  -1.433   0.000  1.00  0.00     0.176 C 
ATOM     26  C   UNL     1       5.980   1.163   0.000  1.00  0.00     0.177 C 
ATOM     27  C   UNL     1       6.777  -0.107   0.000  1.00  0.00     0.177 C 
BRANCH  24  28
ATOM     28  O   UNL     1       3.684   2.378   0.000  1.00  0.00    -0.387 OA
ATOM     29  H   UNL     1       0.000   0.000   0.000  1.00  0.00     0.211 HD
ENDBRANCH  24  28
BRANCH  25  30
ATOM     30  C   UNL     1       6.873  -2.704   0.000  1.00  0.00     0.191 C 
BRANCH  30  31
ATOM     31  O   UNL     1       6.171  -4.030   0.000  1.00  0.00    -0.394 OA
ATOM     32  H   UNL     1       0.000   0.000   0.000  1.00  0.00     0.210 HD
ENDBRANCH  30  31
ENDBRANCH  25  30
BRANCH  26  33
ATOM     33  O   UNL     1       6.682   2.489   0.000  1.00  0.00    -0.387 OA
ATOM     34  H   UNL     1       0.000   0.000   0.000  1.00  0.00     0.211 HD
ENDBRANCH  26  33
BRANCH  27  35
ATOM     35  O   UNL     1       8.276  -0.052   0.000  1.00  0.00    -0.388 OA
ATOM     36  H   UNL     1       0.000   0.000   0.000  1.00  0.00     0.211 HD
ENDBRANCH  27  35
ENDBRANCH   9  22
BRANCH   7  37
ATOM     37  C   UNL     1      -0.813   2.212   0.000  1.00  0.00     0.187 C 
ATOM     38  O   UNL     1      -0.112   3.538   0.000  1.00  0.00    -0.368 OA
ATOM     39  C   UNL     1      -2.312   2.157   0.000  1.00  0.00     0.179 C 
ATOM     40  C   UNL     1      -0.909   4.809   0.000  1.00  0.00     0.195 C 
ATOM     41  C   UNL     1      -3.110   3.428   0.000  1.00  0.00     0.177 C 
ATOM     42  C   UNL     1      -2.408   4.753   0.000  1.00  0.00     0.171 C 
BRANCH  39  43
ATOM     43  O   UNL     1      -3.014   0.831   0.000  1.00  0.00    -0.387 OA
ATOM     44  H   UNL     1       0.000   0.000   0.000  1.00  0.00     0.211 HD
ENDBRANCH  39  43
BRANCH  41  45
ATOM     45  O   UNL     1      -4.609   3.372   0.000  1.00  0.00    -0.387 OA
ATOM     46  H   UNL     1       0.000   0.000   0.000  1.00  0.00     0.211 HD
ENDBRANCH  41  45
BRANCH  42  47
ATOM     47  O   UNL     1      -3.205   6.024   0.000  1.00  0.00    -0.388 OA
ATOM     48  H   UNL     1       0.000   0.000   0.000  1.00  0.00     0.211 HD
ENDBRANCH  42  47
ENDBRANCH   7  37
BRANCH   8  49
ATOM     49  O   UNL     1       2.185   2.323   0.000  1.00  0.00    -0.507 OA
ATOM     50  H   UNL     1       0.000   0.000   0.000  1.00  0.00     0.293 HD
ENDBRANCH   8  49
TORSDOF 14
