REMARK SMILES C[C@@H]1CC[C@]2(C(=O)O)CC[C@]3(C)C(=CCC4[C@@]5(C)C[C@H](O)[C@@H](OC(=O)/C=C/c6ccc(O)cc6)C(C)(C)C5CC[C@]43C)C2[C@H]1C
REMARK SMILES IDX 24 1 25 2 23 3 22 4 2 5 3 6 44 7 4 8 43 9 5 10 13 11 9 12
REMARK SMILES IDX 11 13 14 14 10 15 41 16 15 17 40 18 16 19 39 20 17 21 38 22
REMARK SMILES IDX 19 23 35 24 20 25 1 26 45 27 12 28 42 29 18 30 36 31 37 32
REMARK SMILES IDX 6 33 7 34 8 35 21 37 26 39 27 40 28 41 29 42 34 43 30 44
REMARK SMILES IDX 33 45 31 46 32 47
REMARK H PARENT 8 36 21 38 32 48
ROOT
ATOM      1  C   UNL     1       5.306  -0.177   0.000  1.00  0.00     0.331 C 
ATOM      2  O   UNL     1       4.798  -1.588   0.000  1.00  0.00    -0.247 OA
ENDROOT
BRANCH   1   3
ATOM      3  O   UNL     1       4.338   0.969   0.000  1.00  0.00    -0.456 OA
BRANCH   3   4
ATOM      4  C   UNL     1       2.862   0.704   0.000  1.00  0.00     0.211 C 
ATOM      5  C   UNL     1      -7.981  -2.564   0.000  1.00  0.00    -0.011 C 
ATOM      6  C   UNL     1      -8.949  -1.418   0.000  1.00  0.00     0.005 C 
ATOM      7  C   UNL     1      -6.505  -2.299   0.000  1.00  0.00    -0.003 C 
ATOM      8  C   UNL     1      -8.441  -0.007   0.000  1.00  0.00     0.020 C 
ATOM      9  C   UNL     1      -5.996  -0.887   0.000  1.00  0.00     0.036 C 
ATOM     10  C   UNL     1      -6.964   0.258   0.000  1.00  0.00     0.075 C 
ATOM     11  C   UNL     1      -4.520  -0.622   0.000  1.00  0.00    -0.063 C 
ATOM     12  C   UNL     1      -6.456   1.670   0.000  1.00  0.00     0.020 C 
ATOM     13  C   UNL     1      -4.012   0.789   0.000  1.00  0.00    -0.006 C 
ATOM     14  C   UNL     1      -3.552  -1.768   0.000  1.00  0.00    -0.027 C 
ATOM     15  C   UNL     1      -4.979   1.935   0.000  1.00  0.00     0.013 C 
ATOM     16  C   UNL     1      -2.535   1.054   0.000  1.00  0.00    -0.020 C 
ATOM     17  C   UNL     1      -2.076  -1.503   0.000  1.00  0.00     0.032 C 
ATOM     18  C   UNL     1      -2.027   2.465   0.000  1.00  0.00     0.008 C 
ATOM     19  C   UNL     1      -1.567  -0.092   0.000  1.00  0.00     0.006 C 
ATOM     20  C   UNL     1      -0.550   2.731   0.000  1.00  0.00     0.005 C 
ATOM     21  C   UNL     1      -0.091   0.173   0.000  1.00  0.00    -0.023 C 
ATOM     22  C   UNL     1       0.417   1.585   0.000  1.00  0.00     0.005 C 
ATOM     23  C   UNL     1       0.877  -0.973   0.000  1.00  0.00     0.043 C 
ATOM     24  C   UNL     1       1.894   1.850   0.000  1.00  0.00     0.008 C 
ATOM     25  C   UNL     1       2.353  -0.707   0.000  1.00  0.00     0.156 C 
ATOM     26  C   UNL     1      -8.490  -3.975   0.000  1.00  0.00     0.008 C 
ATOM     27  C   UNL     1      -5.537  -3.445   0.000  1.00  0.00     0.008 C 
ATOM     28  C   UNL     1      -3.044  -0.357   0.000  1.00  0.00     0.017 C 
ATOM     29  C   UNL     1      -3.503   2.200   0.000  1.00  0.00     0.012 C 
ATOM     30  C   UNL     1      -0.599  -1.238   0.000  1.00  0.00     0.012 C 
ATOM     31  C   UNL     1       1.376   3.258   0.000  1.00  0.00     0.015 C 
ATOM     32  C   UNL     1       3.191   2.604   0.000  1.00  0.00     0.015 C 
BRANCH  10  33
ATOM     33  C   UNL     1      -7.932   1.404   0.000  1.00  0.00     0.310 C 
ATOM     34  O   UNL     1      -9.409   1.139   0.000  1.00  0.00    -0.252 OA
BRANCH  33  35
ATOM     35  O   UNL     1      -7.424   2.816   0.000  1.00  0.00    -0.481 OA
ATOM     36  H   UNL     1       0.000   0.000   0.000  1.00  0.00     0.296 HD
ENDBRANCH  33  35
ENDBRANCH  10  33
BRANCH  25  37
ATOM     37  O   UNL     1       3.321  -1.853   0.000  1.00  0.00    -0.389 OA
ATOM     38  H   UNL     1       0.000   0.000   0.000  1.00  0.00     0.211 HD
ENDBRANCH  25  37
ENDBRANCH   3   4
ENDBRANCH   1   3
BRANCH   1  39
ATOM     39  C   UNL     1       6.782   0.088   0.000  1.00  0.00     0.094 C 
BRANCH  39  40
ATOM     40  C   UNL     1       7.750  -1.058   0.000  1.00  0.00     0.015 C 
BRANCH  40  41
ATOM     41  C   UNL     1       9.227  -0.792   0.000  1.00  0.00    -0.025 A 
ATOM     42  C   UNL     1      10.194  -1.938   0.000  1.00  0.00     0.012 A 
ATOM     43  C   UNL     1       9.735   0.619   0.000  1.00  0.00     0.012 A 
ATOM     44  C   UNL     1      11.671  -1.673   0.000  1.00  0.00     0.047 A 
ATOM     45  C   UNL     1      11.211   0.884   0.000  1.00  0.00     0.047 A 
ATOM     46  C   UNL     1      12.179  -0.262   0.000  1.00  0.00     0.115 A 
BRANCH  46  47
ATOM     47  O   UNL     1      13.656   0.003   0.000  1.00  0.00    -0.508 OA
ATOM     48  H   UNL     1       0.000   0.000   0.000  1.00  0.00     0.293 HD
ENDBRANCH  46  47
ENDBRANCH  40  41
ENDBRANCH  39  40
ENDBRANCH   1  39
TORSDOF 9
