REMARK SMILES C=CC[C@]12CC(=O)[C@@H](OC)[C@H](C1O)[C@H](c1ccc3c(c1)OCO3)[C@H]2C
REMARK SMILES IDX 4 1 5 2 6 3 7 4 8 5 11 6 12 7 14 8 24 9 25 10 3 11 2 12 1 13
REMARK SMILES IDX 13 14 15 16 16 17 20 18 17 19 19 20 18 21 21 22 23 23 22 24
REMARK SMILES IDX 9 25 10 26
REMARK H PARENT 13 15
ROOT
ATOM      1  C   UNL     1       2.368   0.888   0.000  1.00  0.00     0.010 C 
ATOM      2  C   UNL     1       3.679   0.158   0.000  1.00  0.00     0.088 C 
ATOM      3  C   UNL     1       3.702  -1.342   0.000  1.00  0.00     0.162 C 
ATOM      4  O   UNL     1       5.013  -2.071   0.000  1.00  0.00    -0.297 OA
ATOM      5  C   UNL     1       2.415  -2.112   0.000  1.00  0.00     0.190 C 
ATOM      6  C   UNL     1       1.105  -1.382   0.000  1.00  0.00     0.063 C 
ATOM      7  C   UNL     1       1.081   0.118   0.000  1.00  0.00     0.128 C 
ATOM      8  C   UNL     1       0.167  -0.134   0.000  1.00  0.00     0.031 C 
ATOM      9  C   UNL     1       0.896   1.177   0.000  1.00  0.00     0.003 C 
ATOM     10  C   UNL     1       0.265   2.537   0.000  1.00  0.00     0.009 C 
ENDROOT
BRANCH   1  11
ATOM     11  C   UNL     1       2.345   2.388   0.000  1.00  0.00     0.037 C 
BRANCH  11  12
ATOM     12  C   UNL     1       3.632   3.158   0.000  1.00  0.00    -0.034 C 
ATOM     13  C   UNL     1       3.608   4.658   0.000  1.00  0.00     0.004 C 
ENDBRANCH  11  12
ENDBRANCH   1  11
BRANCH   7  14
ATOM     14  O   UNL     1      -0.230   0.847   0.000  1.00  0.00    -0.392 OA
ATOM     15  H   UNL     1       0.000   0.000   0.000  1.00  0.00     0.210 HD
ENDBRANCH   7  14
BRANCH   8  16
ATOM     16  C   UNL     1      -1.322  -0.314   0.000  1.00  0.00    -0.040 A 
ATOM     17  C   UNL     1      -1.911  -1.694   0.000  1.00  0.00     0.008 A 
ATOM     18  C   UNL     1      -2.223   0.885   0.000  1.00  0.00     0.054 A 
ATOM     19  C   UNL     1      -3.400  -1.874   0.000  1.00  0.00     0.051 A 
ATOM     20  C   UNL     1      -3.712   0.705   0.000  1.00  0.00     0.166 A 
ATOM     21  C   UNL     1      -4.301  -0.674   0.000  1.00  0.00     0.165 A 
ATOM     22  O   UNL     1      -4.843   1.692   0.000  1.00  0.00    -0.454 OA
ATOM     23  O   UNL     1      -5.795  -0.541   0.000  1.00  0.00    -0.454 OA
ATOM     24  C   UNL     1      -6.130   0.921   0.000  1.00  0.00     0.468 C 
ENDBRANCH   8  16
BRANCH   5  25
ATOM     25  O   UNL     1       2.439  -3.612   0.000  1.00  0.00    -0.373 OA
ATOM     26  C   UNL     1       1.151  -4.382   0.000  1.00  0.00     0.195 C 
ENDBRANCH   5  25
TORSDOF 5
