REMARK SMILES CC(C)c1cc2c(cc1O)[C@@]1(C)CCCC(C)(C)[C@@H]1CC2=O
REMARK SMILES IDX 4 1 5 2 6 3 7 4 8 5 9 6 11 7 12 8 13 9 14 10 15 11 16 12
REMARK SMILES IDX 17 13 18 14 19 15 20 16 21 17 22 18 2 19 1 20 3 21 10 22
REMARK H PARENT 10 23
ROOT
ATOM      1  C   UNL     1      -3.083   0.085   0.000  1.00  0.00    -0.003 A 
ATOM      2  C   UNL     1      -2.122   1.236   0.000  1.00  0.00     0.020 A 
ATOM      3  C   UNL     1      -0.644   0.979   0.000  1.00  0.00     0.022 A 
ATOM      4  C   UNL     1      -0.128  -0.429   0.000  1.00  0.00    -0.027 A 
ATOM      5  C   UNL     1      -1.089  -1.581   0.000  1.00  0.00     0.051 A 
ATOM      6  C   UNL     1      -2.567  -1.324   0.000  1.00  0.00     0.119 A 
ATOM      7  C   UNL     1       1.350  -0.686   0.000  1.00  0.00    -0.003 C 
ATOM      8  C   UNL     1       0.389  -1.837   0.000  1.00  0.00     0.017 C 
ATOM      9  C   UNL     1       1.867  -2.094   0.000  1.00  0.00     0.012 C 
ATOM     10  C   UNL     1       3.345  -2.351   0.000  1.00  0.00     0.001 C 
ATOM     11  C   UNL     1       4.306  -1.200   0.000  1.00  0.00     0.007 C 
ATOM     12  C   UNL     1       3.789   0.208   0.000  1.00  0.00    -0.031 C 
ATOM     13  C   UNL     1       3.786   1.708   0.000  1.00  0.00     0.011 C 
ATOM     14  C   UNL     1       5.266   0.472   0.000  1.00  0.00     0.011 C 
ATOM     15  C   UNL     1       2.312   0.465   0.000  1.00  0.00     0.013 C 
ATOM     16  C   UNL     1       1.795   1.874   0.000  1.00  0.00     0.086 C 
ATOM     17  C   UNL     1       0.317   2.131   0.000  1.00  0.00     0.163 C 
ATOM     18  O   UNL     1      -0.199   3.539   0.000  1.00  0.00    -0.294 OA
ENDROOT
BRANCH   1  19
ATOM     19  C   UNL     1      -4.561   0.341   0.000  1.00  0.00     0.017 C 
ATOM     20  C   UNL     1      -5.078   1.750   0.000  1.00  0.00     0.012 C 
ATOM     21  C   UNL     1      -5.522  -0.810   0.000  1.00  0.00     0.012 C 
ENDBRANCH   1  19
BRANCH   6  22
ATOM     22  O   UNL     1      -3.528  -2.475   0.000  1.00  0.00    -0.508 OA
ATOM     23  H   UNL     1       0.000   0.000   0.000  1.00  0.00     0.293 HD
ENDBRANCH   6  22
TORSDOF 2
