REMARK SMILES COc1cc(O)c2c(c1)O[C@H](c1ccccc1)CC2=O
REMARK SMILES IDX 3 1 4 2 5 3 7 4 19 5 20 6 18 7 11 8 10 9 8 10 9 11 2 12 1 13
REMARK SMILES IDX 6 14 12 16 13 17 17 18 14 19 16 20 15 21
REMARK H PARENT 6 15
ROOT
ATOM      1  C   UNL     1      -3.485  -1.277   0.000  1.00  0.00     0.126 A 
ATOM      2  C   UNL     1      -3.900   0.165   0.000  1.00  0.00     0.093 A 
ATOM      3  C   UNL     1      -2.859   1.245   0.000  1.00  0.00     0.133 A 
ATOM      4  C   UNL     1      -1.403   0.884   0.000  1.00  0.00     0.102 A 
ATOM      5  C   UNL     1      -0.363   1.964   0.000  1.00  0.00     0.174 C 
ATOM      6  O   UNL     1      -0.778   3.405   0.000  1.00  0.00    -0.294 OA
ATOM      7  C   UNL     1       1.093   1.603   0.000  1.00  0.00     0.131 C 
ATOM      8  C   UNL     1       1.508   0.161   0.000  1.00  0.00     0.211 C 
ATOM      9  O   UNL     1       0.467  -0.919   0.000  1.00  0.00    -0.484 OA
ATOM     10  C   UNL     1      -0.989  -0.558   0.000  1.00  0.00     0.138 A 
ATOM     11  C   UNL     1      -2.029  -1.638   0.000  1.00  0.00     0.093 A 
ENDROOT
BRANCH   1  12
ATOM     12  O   UNL     1      -4.526  -2.357   0.000  1.00  0.00    -0.496 OA
ATOM     13  C   UNL     1      -5.982  -1.995   0.000  1.00  0.00     0.278 C 
ENDBRANCH   1  12
BRANCH   3  14
ATOM     14  O   UNL     1      -3.274   2.686   0.000  1.00  0.00    -0.507 OA
ATOM     15  H   UNL     1       0.000   0.000   0.000  1.00  0.00     0.293 HD
ENDBRANCH   3  14
BRANCH   8  16
ATOM     16  C   UNL     1       2.964  -0.200   0.000  1.00  0.00    -0.007 A 
ATOM     17  C   UNL     1       3.379  -1.642   0.000  1.00  0.00     0.007 A 
ATOM     18  C   UNL     1       4.005   0.880   0.000  1.00  0.00     0.007 A 
ATOM     19  C   UNL     1       4.835  -2.003   0.000  1.00  0.00     0.000 A 
ATOM     20  C   UNL     1       5.461   0.519   0.000  1.00  0.00     0.000 A 
ATOM     21  C   UNL     1       5.876  -0.923   0.000  1.00  0.00     0.000 A 
ENDBRANCH   8  16
TORSDOF 3
