REMARK SMILES C[C@@H]1O[C@@H](OC[C@@H]2O[C@@H](O[C@H]3[C@H](O)[C@@H](O)[C@H](Oc4c(-c5ccc(O)cc5)oc5cc(O)cc(O)c5c4=O)O[C@@H]3CO)[C@H](O)[C@H](O)[C@H]2O)[C@H](O)[C@H](O)[C@H]1O
REMARK SMILES IDX 10 1 9 2 7 3 8 4 46 5 44 6 42 7 6 8 5 9 4 10 2 11 3 12 52 13
REMARK SMILES IDX 50 14 48 15 1 16 53 17 51 19 49 21 47 23 45 25 43 27 11 29
REMARK SMILES IDX 12 30 39 31 14 32 38 33 16 34 13 35 40 37 41 38 15 40 17 42
REMARK SMILES IDX 18 43 19 44 36 45 27 46 35 47 28 48 33 49 29 50 32 51 30 52
REMARK SMILES IDX 37 53 20 54 21 55 26 56 22 57 25 58 23 59 24 60 34 62 31 64
REMARK H PARENT 53 18 51 20 49 22 47 24 45 26 43 28 13 36 41 39 15 41 24 61
REMARK H PARENT 34 63 31 65
ROOT
ATOM      1  O   UNL     1       0.658   4.776   0.000  1.00  0.00    -0.341 OA
ENDROOT
BRANCH   1   2
ATOM      2  C   UNL     1       2.064   4.253   0.000  1.00  0.00     0.282 C 
ATOM      3  C   UNL     1       3.721   2.252   0.000  1.00  0.00     0.178 C 
ATOM      4  O   UNL     1       2.315   2.774   0.000  1.00  0.00    -0.341 OA
ATOM      5  C   UNL     1       4.876   3.208   0.000  1.00  0.00     0.177 C 
ATOM      6  C   UNL     1       4.626   4.687   0.000  1.00  0.00     0.179 C 
ATOM      7  C   UNL     1       3.220   5.210   0.000  1.00  0.00     0.202 C 
BRANCH   3   8
ATOM      8  C   UNL     1       3.971   0.773   0.000  1.00  0.00     0.198 C 
BRANCH   8   9
ATOM      9  O   UNL     1       5.377   0.250   0.000  1.00  0.00    -0.347 OA
BRANCH   9  10
ATOM     10  C   UNL     1       5.627  -1.229   0.000  1.00  0.00     0.281 C 
ATOM     11  C   UNL     1       7.284  -3.231   0.000  1.00  0.00     0.150 C 
ATOM     12  O   UNL     1       7.033  -1.752   0.000  1.00  0.00    -0.344 OA
ATOM     13  C   UNL     1       6.128  -4.187   0.000  1.00  0.00     0.174 C 
ATOM     14  C   UNL     1       4.722  -3.664   0.000  1.00  0.00     0.179 C 
ATOM     15  C   UNL     1       4.472  -2.185   0.000  1.00  0.00     0.202 C 
ATOM     16  C   UNL     1       8.690  -3.753   0.000  1.00  0.00     0.041 C 
BRANCH  13  17
ATOM     17  O   UNL     1       6.378  -5.666   0.000  1.00  0.00    -0.388 OA
ATOM     18  H   UNL     1       0.000   0.000   0.000  1.00  0.00     0.211 HD
ENDBRANCH  13  17
BRANCH  14  19
ATOM     19  O   UNL     1       3.566  -4.620   0.000  1.00  0.00    -0.387 OA
ATOM     20  H   UNL     1       0.000   0.000   0.000  1.00  0.00     0.211 HD
ENDBRANCH  14  19
BRANCH  15  21
ATOM     21  O   UNL     1       3.066  -1.663   0.000  1.00  0.00    -0.385 OA
ATOM     22  H   UNL     1       0.000   0.000   0.000  1.00  0.00     0.211 HD
ENDBRANCH  15  21
ENDBRANCH   9  10
ENDBRANCH   8   9
ENDBRANCH   3   8
BRANCH   5  23
ATOM     23  O   UNL     1       6.282   2.685   0.000  1.00  0.00    -0.387 OA
ATOM     24  H   UNL     1       0.000   0.000   0.000  1.00  0.00     0.211 HD
ENDBRANCH   5  23
BRANCH   6  25
ATOM     25  O   UNL     1       5.782   5.643   0.000  1.00  0.00    -0.387 OA
ATOM     26  H   UNL     1       0.000   0.000   0.000  1.00  0.00     0.211 HD
ENDBRANCH   6  25
BRANCH   7  27
ATOM     27  O   UNL     1       2.970   6.689   0.000  1.00  0.00    -0.385 OA
ATOM     28  H   UNL     1       0.000   0.000   0.000  1.00  0.00     0.211 HD
ENDBRANCH   7  27
ENDBRANCH   1   2
BRANCH   1  29
ATOM     29  C   UNL     1      -0.497   3.820   0.000  1.00  0.00     0.184 C 
ATOM     30  C   UNL     1      -1.903   4.342   0.000  1.00  0.00     0.181 C 
ATOM     31  C   UNL     1      -0.247   2.341   0.000  1.00  0.00     0.180 C 
ATOM     32  C   UNL     1      -3.059   3.386   0.000  1.00  0.00     0.214 C 
ATOM     33  O   UNL     1      -1.403   1.384   0.000  1.00  0.00    -0.332 OA
ATOM     34  C   UNL     1      -2.809   1.907   0.000  1.00  0.00     0.339 C 
BRANCH  30  35
ATOM     35  O   UNL     1      -2.154   5.821   0.000  1.00  0.00    -0.387 OA
ATOM     36  H   UNL     1       0.000   0.000   0.000  1.00  0.00     0.211 HD
ENDBRANCH  30  35
BRANCH  31  37
ATOM     37  C   UNL     1       1.159   1.818   0.000  1.00  0.00     0.191 C 
BRANCH  37  38
ATOM     38  O   UNL     1       1.409   0.339   0.000  1.00  0.00    -0.394 OA
ATOM     39  H   UNL     1       0.000   0.000   0.000  1.00  0.00     0.210 HD
ENDBRANCH  37  38
ENDBRANCH  31  37
BRANCH  32  40
ATOM     40  O   UNL     1      -4.465   3.909   0.000  1.00  0.00    -0.384 OA
ATOM     41  H   UNL     1       0.000   0.000   0.000  1.00  0.00     0.211 HD
ENDBRANCH  32  40
BRANCH  34  42
ATOM     42  O   UNL     1      -3.964   0.951   0.000  1.00  0.00    -0.454 OA
BRANCH  42  43
ATOM     43  C   UNL     1      -3.714  -0.528   0.000  1.00  0.00     0.214 A 
ATOM     44  C   UNL     1      -4.870  -1.484   0.000  1.00  0.00     0.180 A 
ATOM     45  C   UNL     1      -2.308  -1.051   0.000  1.00  0.00     0.239 A 
ATOM     46  O   UNL     1      -4.619  -2.963   0.000  1.00  0.00    -0.452 OA
ATOM     47  C   UNL     1      -2.058  -2.530   0.000  1.00  0.00     0.111 A 
ATOM     48  C   UNL     1      -3.213  -3.486   0.000  1.00  0.00     0.146 A 
ATOM     49  C   UNL     1      -0.652  -3.053   0.000  1.00  0.00     0.134 A 
ATOM     50  C   UNL     1      -2.963  -4.965   0.000  1.00  0.00     0.094 A 
ATOM     51  C   UNL     1      -0.401  -4.532   0.000  1.00  0.00     0.093 A 
ATOM     52  C   UNL     1      -1.557  -5.488   0.000  1.00  0.00     0.123 A 
ATOM     53  O   UNL     1      -1.152  -0.095   0.000  1.00  0.00    -0.285 OA
BRANCH  44  54
ATOM     54  C   UNL     1      -6.276  -0.962   0.000  1.00  0.00     0.021 A 
ATOM     55  C   UNL     1      -6.526   0.517   0.000  1.00  0.00     0.016 A 
ATOM     56  C   UNL     1      -7.431  -1.918   0.000  1.00  0.00     0.016 A 
ATOM     57  C   UNL     1      -7.932   1.040   0.000  1.00  0.00     0.047 A 
ATOM     58  C   UNL     1      -8.837  -1.395   0.000  1.00  0.00     0.047 A 
ATOM     59  C   UNL     1      -9.088   0.084   0.000  1.00  0.00     0.115 A 
BRANCH  59  60
ATOM     60  O   UNL     1     -10.494   0.606   0.000  1.00  0.00    -0.508 OA
ATOM     61  H   UNL     1       0.000   0.000   0.000  1.00  0.00     0.293 HD
ENDBRANCH  59  60
ENDBRANCH  44  54
BRANCH  49  62
ATOM     62  O   UNL     1       0.504  -2.096   0.000  1.00  0.00    -0.507 OA
ATOM     63  H   UNL     1       0.000   0.000   0.000  1.00  0.00     0.293 HD
ENDBRANCH  49  62
BRANCH  52  64
ATOM     64  O   UNL     1      -1.307  -6.967   0.000  1.00  0.00    -0.508 OA
ATOM     65  H   UNL     1       0.000   0.000   0.000  1.00  0.00     0.293 HD
ENDBRANCH  52  64
ENDBRANCH  42  43
ENDBRANCH  34  42
ENDBRANCH   1  29
TORSDOF 21
