REMARK SMILES CC1(C)CCC2=C(O1)c1ccccc1C(=O)C2=O
REMARK SMILES IDX 1 1 2 2 3 3 4 4 5 5 6 6 7 7 8 8 9 9 10 10 11 11 12 12 13 13
REMARK SMILES IDX 14 14 15 15 16 16 17 17 18 18
REMARK H PARENT
ROOT
ATOM      1  C   UNL     1      -3.382  -2.136   0.000  1.00  0.00     0.056 C 
ATOM      2  C   UNL     1      -3.073  -0.669   0.000  1.00  0.00     0.104 C 
ATOM      3  C   UNL     1      -4.573  -0.619   0.000  1.00  0.00     0.056 C 
ATOM      4  C   UNL     1      -3.285   0.816   0.000  1.00  0.00     0.053 C 
ATOM      5  C   UNL     1      -2.105   1.742   0.000  1.00  0.00     0.048 C 
ATOM      6  C   UNL     1      -0.713   1.183   0.000  1.00  0.00     0.046 C 
ATOM      7  C   UNL     1      -0.501  -0.302   0.000  1.00  0.00     0.135 C 
ATOM      8  O   UNL     1      -1.681  -1.228   0.000  1.00  0.00    -0.487 OA
ATOM      9  C   UNL     1       0.891  -0.861   0.000  1.00  0.00     0.028 A 
ATOM     10  C   UNL     1       1.102  -2.346   0.000  1.00  0.00     0.013 A 
ATOM     11  C   UNL     1       2.494  -2.905   0.000  1.00  0.00     0.001 A 
ATOM     12  C   UNL     1       3.675  -1.979   0.000  1.00  0.00     0.001 A 
ATOM     13  C   UNL     1       3.463  -0.494   0.000  1.00  0.00     0.013 A 
ATOM     14  C   UNL     1       2.071   0.065   0.000  1.00  0.00     0.037 A 
ATOM     15  C   UNL     1       1.859   1.550   0.000  1.00  0.00     0.234 C 
ATOM     16  O   UNL     1       3.039   2.476   0.000  1.00  0.00    -0.285 OA
ATOM     17  C   UNL     1       0.467   2.109   0.000  1.00  0.00     0.233 C 
ATOM     18  O   UNL     1       0.255   3.594   0.000  1.00  0.00    -0.285 OA
ENDROOT
TORSDOF 0
