REMARK SMILES C=CC(C)(C)c1cc2cc(OC)c(O)cc2oc1=O
REMARK SMILES IDX 6 1 7 2 8 3 9 4 10 5 13 6 15 7 16 8 17 9 18 10 19 11 3 12
REMARK SMILES IDX 4 13 5 14 2 15 1 16 11 17 12 18 14 19
REMARK H PARENT 14 20
ROOT
ATOM      1  C   UNL     1       1.790  -0.107   0.000  1.00  0.00     0.048 A 
ATOM      2  C   UNL     1       0.549  -0.950   0.000  1.00  0.00     0.024 A 
ATOM      3  C   UNL     1      -0.801  -0.296   0.000  1.00  0.00     0.022 A 
ATOM      4  C   UNL     1      -2.042  -1.138   0.000  1.00  0.00     0.062 A 
ATOM      5  C   UNL     1      -3.392  -0.484   0.000  1.00  0.00     0.161 A 
ATOM      6  C   UNL     1      -3.501   1.012   0.000  1.00  0.00     0.161 A 
ATOM      7  C   UNL     1      -2.260   1.854   0.000  1.00  0.00     0.098 A 
ATOM      8  C   UNL     1      -0.910   1.200   0.000  1.00  0.00     0.142 A 
ATOM      9  O   UNL     1       0.331   2.043   0.000  1.00  0.00    -0.422 OA
ATOM     10  C   UNL     1       1.681   1.389   0.000  1.00  0.00     0.340 A 
ATOM     11  O   UNL     1       2.922   2.231   0.000  1.00  0.00    -0.246 OA
ENDROOT
BRANCH   1  12
ATOM     12  C   UNL     1       3.140  -0.761   0.000  1.00  0.00     0.014 C 
ATOM     13  C   UNL     1       2.486  -2.111   0.000  1.00  0.00     0.021 C 
ATOM     14  C   UNL     1       3.794   0.589   0.000  1.00  0.00     0.021 C 
BRANCH  12  15
ATOM     15  C   UNL     1       4.490  -1.415   0.000  1.00  0.00    -0.024 C 
ATOM     16  C   UNL     1       5.731  -0.572   0.000  1.00  0.00     0.005 C 
ENDBRANCH  12  15
ENDBRANCH   1  12
BRANCH   5  17
ATOM     17  O   UNL     1      -4.633  -1.327   0.000  1.00  0.00    -0.493 OA
ATOM     18  C   UNL     1      -4.525  -2.823   0.000  1.00  0.00     0.278 C 
ENDBRANCH   5  17
BRANCH   6  19
ATOM     19  O   UNL     1      -4.851   1.665   0.000  1.00  0.00    -0.504 OA
ATOM     20  H   UNL     1       0.000   0.000   0.000  1.00  0.00     0.293 HD
ENDBRANCH   6  19
TORSDOF 4
