REMARK SMILES CC1(C)CC[C@]2(C(=O)O[C@@H]3O[C@H](CO)[C@@H](O)[C@H](O)[C@H]3O)CC[C@]3(C)C(=CC[C@@H]4[C@@]5(C)C[C@@H](O)[C@H](O)C(C)(C)[C@@H]5[C@H](O)C[C@]43C)[C@@H]2C1
REMARK SMILES IDX 9 1 7 2 8 3 6 4 2 5 4 6 46 7 5 8 45 9 25 10 21 11 23 12
REMARK SMILES IDX 26 13 22 14 43 15 27 16 42 17 28 18 40 19 29 20 39 21 31 22
REMARK SMILES IDX 36 23 32 24 34 25 1 26 3 27 24 28 44 29 30 30 37 31 38 32
REMARK SMILES IDX 41 33 33 35 35 37 10 39 11 40 19 41 12 42 17 43 15 44 20 45
REMARK SMILES IDX 13 47 14 48 18 50 16 52
REMARK H PARENT 41 34 33 36 35 38 20 46 14 49 18 51 16 53
ROOT
ATOM      1  O   UNL     1      -3.089   0.402   0.000  1.00  0.00    -0.432 OA
ENDROOT
BRANCH   1   2
ATOM      2  C   UNL     1      -3.173  -1.095   0.000  1.00  0.00     0.315 C 
ATOM      3  O   UNL     1      -4.512  -1.771   0.000  1.00  0.00    -0.252 OA
BRANCH   2   4
ATOM      4  C   UNL     1      -1.918  -1.917   0.000  1.00  0.00     0.075 C 
ATOM      5  C   UNL     1      -2.087  -4.912   0.000  1.00  0.00    -0.035 C 
ATOM      6  C   UNL     1      -3.341  -4.090   0.000  1.00  0.00     0.007 C 
ATOM      7  C   UNL     1      -0.748  -4.236   0.000  1.00  0.00     0.015 C 
ATOM      8  C   UNL     1      -3.257  -2.593   0.000  1.00  0.00     0.020 C 
ATOM      9  C   UNL     1      -0.663  -2.739   0.000  1.00  0.00     0.033 C 
ATOM     10  C   UNL     1       0.676  -2.063   0.000  1.00  0.00    -0.063 C 
ATOM     11  C   UNL     1      -1.834  -0.419   0.000  1.00  0.00     0.020 C 
ATOM     12  C   UNL     1       0.760  -0.565   0.000  1.00  0.00    -0.006 C 
ATOM     13  C   UNL     1       1.931  -2.885   0.000  1.00  0.00    -0.027 C 
ATOM     14  C   UNL     1      -0.495   0.257   0.000  1.00  0.00     0.013 C 
ATOM     15  C   UNL     1       2.099   0.111   0.000  1.00  0.00    -0.017 C 
ATOM     16  C   UNL     1       3.270  -2.209   0.000  1.00  0.00     0.032 C 
ATOM     17  C   UNL     1       2.184   1.608   0.000  1.00  0.00     0.040 C 
ATOM     18  C   UNL     1       3.354  -0.711   0.000  1.00  0.00     0.006 C 
ATOM     19  C   UNL     1       3.523   2.284   0.000  1.00  0.00     0.119 C 
ATOM     20  C   UNL     1       4.693  -0.035   0.000  1.00  0.00    -0.020 C 
ATOM     21  C   UNL     1       4.777   1.462   0.000  1.00  0.00     0.032 C 
ATOM     22  C   UNL     1       5.948  -0.857   0.000  1.00  0.00     0.042 C 
ATOM     23  C   UNL     1       6.117   2.138   0.000  1.00  0.00    -0.001 C 
ATOM     24  C   UNL     1       7.287  -0.181   0.000  1.00  0.00     0.144 C 
ATOM     25  C   UNL     1       7.372   1.316   0.000  1.00  0.00     0.149 C 
ATOM     26  C   UNL     1      -1.188  -6.114   0.000  1.00  0.00     0.011 C 
ATOM     27  C   UNL     1      -3.114  -6.005   0.000  1.00  0.00     0.011 C 
ATOM     28  C   UNL     1       2.015  -1.387   0.000  1.00  0.00     0.017 C 
ATOM     29  C   UNL     1       0.844   0.932   0.000  1.00  0.00     0.013 C 
ATOM     30  C   UNL     1       4.609  -1.533   0.000  1.00  0.00     0.012 C 
ATOM     31  C   UNL     1       5.219   3.339   0.000  1.00  0.00     0.014 C 
ATOM     32  C   UNL     1       7.144   3.231   0.000  1.00  0.00     0.014 C 
BRANCH  19  33
ATOM     33  O   UNL     1       3.607   3.782   0.000  1.00  0.00    -0.393 OA
ATOM     34  H   UNL     1       0.000   0.000   0.000  1.00  0.00     0.210 HD
ENDBRANCH  19  33
BRANCH  24  35
ATOM     35  O   UNL     1       8.542  -1.003   0.000  1.00  0.00    -0.390 OA
ATOM     36  H   UNL     1       0.000   0.000   0.000  1.00  0.00     0.211 HD
ENDBRANCH  24  35
BRANCH  25  37
ATOM     37  O   UNL     1       8.711   1.992   0.000  1.00  0.00    -0.390 OA
ATOM     38  H   UNL     1       0.000   0.000   0.000  1.00  0.00     0.211 HD
ENDBRANCH  25  37
ENDBRANCH   2   4
ENDBRANCH   1   2
BRANCH   1  39
ATOM     39  C   UNL     1      -4.343   1.224   0.000  1.00  0.00     0.342 C 
ATOM     40  O   UNL     1      -4.259   2.722   0.000  1.00  0.00    -0.332 OA
ATOM     41  C   UNL     1      -5.683   0.548   0.000  1.00  0.00     0.214 C 
ATOM     42  C   UNL     1      -5.514   3.544   0.000  1.00  0.00     0.179 C 
ATOM     43  C   UNL     1      -6.938   1.370   0.000  1.00  0.00     0.180 C 
ATOM     44  C   UNL     1      -6.853   2.868   0.000  1.00  0.00     0.177 C 
BRANCH  41  45
ATOM     45  O   UNL     1      -5.767  -0.949   0.000  1.00  0.00    -0.384 OA
ATOM     46  H   UNL     1       0.000   0.000   0.000  1.00  0.00     0.211 HD
ENDBRANCH  41  45
BRANCH  42  47
ATOM     47  C   UNL     1      -5.430   5.041   0.000  1.00  0.00     0.191 C 
BRANCH  47  48
ATOM     48  O   UNL     1      -4.091   5.717   0.000  1.00  0.00    -0.394 OA
ATOM     49  H   UNL     1       0.000   0.000   0.000  1.00  0.00     0.210 HD
ENDBRANCH  47  48
ENDBRANCH  42  47
BRANCH  43  50
ATOM     50  O   UNL     1      -8.277   0.694   0.000  1.00  0.00    -0.387 OA
ATOM     51  H   UNL     1       0.000   0.000   0.000  1.00  0.00     0.211 HD
ENDBRANCH  43  50
BRANCH  44  52
ATOM     52  O   UNL     1      -8.108   3.690   0.000  1.00  0.00    -0.387 OA
ATOM     53  H   UNL     1       0.000   0.000   0.000  1.00  0.00     0.211 HD
ENDBRANCH  44  52
ENDBRANCH   1  39
TORSDOF 11
