REMARK SMILES COc1cc2c(c(OC)c1OC[C@@H]1O[C@H](CO)[C@@H](O)[C@H](O)[C@H]1O)Oc1c(O)cc(C(=O)O)cc1O2
REMARK SMILES IDX 11 1 10 2 3 3 4 4 5 5 7 6 6 7 35 8 24 9 34 10 25 11 33 12
REMARK SMILES IDX 26 13 29 14 28 15 2 16 1 17 8 18 9 19 27 20 30 22 31 23
REMARK SMILES IDX 32 24 12 26 13 27 14 28 22 29 15 30 20 31 18 32 23 33 16 35
REMARK SMILES IDX 17 36 21 38 19 40
REMARK H PARENT 27 21 32 25 23 34 17 37 21 39 19 41
ROOT
ATOM      1  O   UNL     1      -2.027  -0.297   0.000  1.00  0.00    -0.483 OA
ENDROOT
BRANCH   1   2
ATOM      2  C   UNL     1      -0.606   0.186   0.000  1.00  0.00     0.207 A 
ATOM      3  C   UNL     1      -0.314   1.657   0.000  1.00  0.00     0.168 A 
ATOM      4  C   UNL     1       1.106   2.140   0.000  1.00  0.00     0.101 A 
ATOM      5  C   UNL     1       2.234   1.151   0.000  1.00  0.00     0.178 A 
ATOM      6  C   UNL     1       0.522  -0.803   0.000  1.00  0.00     0.211 A 
ATOM      7  C   UNL     1       1.942  -0.320   0.000  1.00  0.00     0.216 A 
ATOM      8  O   UNL     1       3.654   1.634   0.000  1.00  0.00    -0.449 OA
ATOM      9  O   UNL     1       3.070  -1.308   0.000  1.00  0.00    -0.441 OA
ATOM     10  C   UNL     1       4.782   0.646   0.000  1.00  0.00     0.174 A 
ATOM     11  C   UNL     1       4.490  -0.826   0.000  1.00  0.00     0.211 A 
ATOM     12  C   UNL     1       6.203   1.128   0.000  1.00  0.00     0.067 A 
ATOM     13  C   UNL     1       5.619  -1.814   0.000  1.00  0.00     0.163 A 
ATOM     14  C   UNL     1       7.331   0.140   0.000  1.00  0.00     0.067 A 
ATOM     15  C   UNL     1       7.039  -1.331   0.000  1.00  0.00     0.066 A 
BRANCH   3  16
ATOM     16  O   UNL     1      -1.442   2.646   0.000  1.00  0.00    -0.493 OA
ATOM     17  C   UNL     1      -1.151   4.117   0.000  1.00  0.00     0.278 C 
ENDBRANCH   3  16
BRANCH   6  18
ATOM     18  O   UNL     1       0.230  -2.274   0.000  1.00  0.00    -0.490 OA
ATOM     19  C   UNL     1      -1.190  -2.757   0.000  1.00  0.00     0.279 C 
ENDBRANCH   6  18
BRANCH  13  20
ATOM     20  O   UNL     1       5.327  -3.286   0.000  1.00  0.00    -0.504 OA
ATOM     21  H   UNL     1       0.000   0.000   0.000  1.00  0.00     0.293 HD
ENDBRANCH  13  20
BRANCH  14  22
ATOM     22  C   UNL     1       8.751   0.623   0.000  1.00  0.00     0.335 C 
ATOM     23  O   UNL     1       9.043   2.094   0.000  1.00  0.00    -0.246 OA
BRANCH  22  24
ATOM     24  O   UNL     1       9.879  -0.366   0.000  1.00  0.00    -0.478 OA
ATOM     25  H   UNL     1       0.000   0.000   0.000  1.00  0.00     0.297 HD
ENDBRANCH  22  24
ENDBRANCH  14  22
ENDBRANCH   1   2
BRANCH   1  26
ATOM     26  C   UNL     1      -3.155   0.692   0.000  1.00  0.00     0.264 C 
BRANCH  26  27
ATOM     27  C   UNL     1      -4.575   0.209   0.000  1.00  0.00     0.187 C 
ATOM     28  O   UNL     1      -5.703   1.198   0.000  1.00  0.00    -0.363 OA
ATOM     29  C   UNL     1      -4.867  -1.262   0.000  1.00  0.00     0.178 C 
ATOM     30  C   UNL     1      -7.123   0.715   0.000  1.00  0.00     0.175 C 
ATOM     31  C   UNL     1      -6.287  -1.745   0.000  1.00  0.00     0.177 C 
ATOM     32  C   UNL     1      -7.415  -0.756   0.000  1.00  0.00     0.177 C 
BRANCH  29  33
ATOM     33  O   UNL     1      -3.739  -2.251   0.000  1.00  0.00    -0.387 OA
ATOM     34  H   UNL     1       0.000   0.000   0.000  1.00  0.00     0.211 HD
ENDBRANCH  29  33
BRANCH  30  35
ATOM     35  C   UNL     1      -8.252   1.703   0.000  1.00  0.00     0.190 C 
BRANCH  35  36
ATOM     36  O   UNL     1      -7.959   3.175   0.000  1.00  0.00    -0.394 OA
ATOM     37  H   UNL     1       0.000   0.000   0.000  1.00  0.00     0.210 HD
ENDBRANCH  35  36
ENDBRANCH  30  35
BRANCH  31  38
ATOM     38  O   UNL     1      -6.579  -3.216   0.000  1.00  0.00    -0.387 OA
ATOM     39  H   UNL     1       0.000   0.000   0.000  1.00  0.00     0.211 HD
ENDBRANCH  31  38
BRANCH  32  40
ATOM     40  O   UNL     1      -8.835  -1.239   0.000  1.00  0.00    -0.388 OA
ATOM     41  H   UNL     1       0.000   0.000   0.000  1.00  0.00     0.211 HD
ENDBRANCH  32  40
ENDBRANCH  26  27
ENDBRANCH   1  26
TORSDOF 13
