REMARK SMILES COC(=O)c1ccc(O)c([C@@H]2C3=C(O[C@H]2C(C)(C)O)C(C(=O)CCc2ccccc2)C(O)C=C3OC)c1
REMARK SMILES IDX 11 1 12 2 13 3 14 4 15 5 20 6 31 7 33 8 34 9 10 10 5 11 6 12
REMARK SMILES IDX 37 13 7 14 8 15 3 16 4 17 2 18 1 19 9 20 16 22 17 23 18 24
REMARK SMILES IDX 19 25 35 27 36 28 21 29 22 30 23 31 24 32 25 33 26 34 30 35
REMARK SMILES IDX 27 36 29 37 28 38 32 39
REMARK H PARENT 9 21 19 26 32 40
ROOT
ATOM      1  C   UNL     1      -1.773  -0.113   0.000  1.00  0.00     0.104 C 
ATOM      2  C   UNL     1      -0.489   0.662   0.000  1.00  0.00     0.044 C 
ATOM      3  C   UNL     1       0.645  -0.319   0.000  1.00  0.00     0.118 C 
ATOM      4  O   UNL     1       0.063  -1.701   0.000  1.00  0.00    -0.489 OA
ATOM      5  C   UNL     1      -1.432  -1.574   0.000  1.00  0.00     0.216 C 
ATOM      6  C   UNL     1       2.062   0.173   0.000  1.00  0.00     0.155 C 
ATOM      7  C   UNL     1       2.345   1.646   0.000  1.00  0.00     0.159 C 
ATOM      8  C   UNL     1       1.210   2.628   0.000  1.00  0.00     0.052 C 
ATOM      9  C   UNL     1      -0.207   2.136   0.000  1.00  0.00     0.124 C 
ENDROOT
BRANCH   1  10
ATOM     10  C   UNL     1      -3.155   0.469   0.000  1.00  0.00     0.006 A 
ATOM     11  C   UNL     1      -5.733   0.146   0.000  1.00  0.00     0.060 A 
ATOM     12  C   UNL     1      -5.920   1.634   0.000  1.00  0.00     0.019 A 
ATOM     13  C   UNL     1      -4.351  -0.437   0.000  1.00  0.00     0.024 A 
ATOM     14  C   UNL     1      -4.724   2.540   0.000  1.00  0.00     0.047 A 
ATOM     15  C   UNL     1      -3.342   1.957   0.000  1.00  0.00     0.119 A 
BRANCH  11  16
ATOM     16  C   UNL     1      -6.929  -0.760   0.000  1.00  0.00     0.337 C 
ATOM     17  O   UNL     1      -6.742  -2.248   0.000  1.00  0.00    -0.246 OA
BRANCH  16  18
ATOM     18  O   UNL     1      -8.311  -0.177   0.000  1.00  0.00    -0.465 OA
ATOM     19  C   UNL     1      -9.507  -1.083   0.000  1.00  0.00     0.282 C 
ENDBRANCH  16  18
ENDBRANCH  11  16
BRANCH  15  20
ATOM     20  O   UNL     1      -2.401   3.126   0.000  1.00  0.00    -0.508 OA
ATOM     21  H   UNL     1       0.000   0.000   0.000  1.00  0.00     0.293 HD
ENDBRANCH  15  20
ENDBRANCH   1  10
BRANCH   5  22
ATOM     22  C   UNL     1      -2.413  -2.709   0.000  1.00  0.00     0.097 C 
ATOM     23  C   UNL     1      -3.548  -1.728   0.000  1.00  0.00     0.046 C 
ATOM     24  C   UNL     1      -1.279  -3.690   0.000  1.00  0.00     0.046 C 
BRANCH  22  25
ATOM     25  O   UNL     1      -3.394  -3.843   0.000  1.00  0.00    -0.387 OA
ATOM     26  H   UNL     1       0.000   0.000   0.000  1.00  0.00     0.211 HD
ENDBRANCH  22  25
ENDBRANCH   5  22
BRANCH   9  27
ATOM     27  O   UNL     1      -1.342   3.117   0.000  1.00  0.00    -0.497 OA
ATOM     28  C   UNL     1      -1.059   4.590   0.000  1.00  0.00     0.278 C 
ENDBRANCH   9  27
BRANCH   6  29
ATOM     29  C   UNL     1       3.197  -0.808   0.000  1.00  0.00     0.146 C 
ATOM     30  O   UNL     1       2.914  -2.281   0.000  1.00  0.00    -0.299 OA
BRANCH  29  31
ATOM     31  C   UNL     1       4.614  -0.316   0.000  1.00  0.00     0.081 C 
BRANCH  31  32
ATOM     32  C   UNL     1       5.748  -1.297   0.000  1.00  0.00     0.043 C 
BRANCH  32  33
ATOM     33  C   UNL     1       7.165  -0.805   0.000  1.00  0.00    -0.048 A 
ATOM     34  C   UNL     1       8.300  -1.786   0.000  1.00  0.00     0.004 A 
ATOM     35  C   UNL     1       7.448   0.668   0.000  1.00  0.00     0.004 A 
ATOM     36  C   UNL     1       9.717  -1.294   0.000  1.00  0.00     0.000 A 
ATOM     37  C   UNL     1       8.865   1.160   0.000  1.00  0.00     0.000 A 
ATOM     38  C   UNL     1       9.999   0.179   0.000  1.00  0.00     0.000 A 
ENDBRANCH  32  33
ENDBRANCH  31  32
ENDBRANCH  29  31
ENDBRANCH   6  29
BRANCH   7  39
ATOM     39  O   UNL     1       3.762   2.139   0.000  1.00  0.00    -0.388 OA
ATOM     40  H   UNL     1       0.000   0.000   0.000  1.00  0.00     0.211 HD
ENDBRANCH   7  39
TORSDOF 12
