REMARK SMILES C=C(CC[C@@H](C)[C@H]1CC[C@@]2(C)C3CCC4C(C)(C)[C@@H](O)CC[C@@]45C[C@@]35CC[C@]12C)C(C)CO
REMARK SMILES IDX 3 1 2 2 1 3 30 4 31 5 32 6 33 7 4 9 5 10 6 11 7 12 8 13
REMARK SMILES IDX 28 14 9 15 27 16 10 17 26 18 12 19 25 20 13 21 24 22 23 23
REMARK SMILES IDX 14 24 22 25 15 26 21 27 16 28 19 29 29 30 11 31 17 32 18 33
REMARK SMILES IDX 20 34
REMARK H PARENT 33 8 20 35
ROOT
ATOM      1  C   UNL     1      -5.628  -0.033   0.000  1.00  0.00     0.031 C 
ENDROOT
BRANCH   1   2
ATOM      2  C   UNL     1      -5.987  -1.489   0.000  1.00  0.00    -0.072 C 
ATOM      3  C   UNL     1      -7.428  -1.905   0.000  1.00  0.00     0.008 C 
BRANCH   2   4
ATOM      4  C   UNL     1      -4.906  -2.529   0.000  1.00  0.00     0.037 C 
ATOM      5  C   UNL     1      -5.266  -3.985   0.000  1.00  0.00     0.015 C 
BRANCH   4   6
ATOM      6  C   UNL     1      -3.465  -2.112   0.000  1.00  0.00     0.163 C 
BRANCH   6   7
ATOM      7  O   UNL     1      -2.384  -3.152   0.000  1.00  0.00    -0.396 OA
ATOM      8  H   UNL     1       0.000   0.000   0.000  1.00  0.00     0.210 HD
ENDBRANCH   6   7
ENDBRANCH   4   6
ENDBRANCH   2   4
ENDBRANCH   1   2
BRANCH   1   9
ATOM      9  C   UNL     1      -4.186   0.384   0.000  1.00  0.00     0.008 C 
BRANCH   9  10
ATOM     10  C   UNL     1      -3.827   1.840   0.000  1.00  0.00    -0.010 C 
ATOM     11  C   UNL     1      -4.908   2.880   0.000  1.00  0.00     0.008 C 
BRANCH  10  12
ATOM     12  C   UNL     1      -2.386   2.256   0.000  1.00  0.00    -0.002 C 
ATOM     13  C   UNL     1      -1.875   3.667   0.000  1.00  0.00     0.005 C 
ATOM     14  C   UNL     1      -1.202   1.335   0.000  1.00  0.00    -0.024 C 
ATOM     15  C   UNL     1      -0.376   3.618   0.000  1.00  0.00     0.008 C 
ATOM     16  C   UNL     1      -1.094  -0.161   0.000  1.00  0.00     0.008 C 
ATOM     17  C   UNL     1       0.040   2.176   0.000  1.00  0.00    -0.024 C 
ATOM     18  C   UNL     1       0.256  -0.816   0.000  1.00  0.00     0.008 C 
ATOM     19  C   UNL     1       1.390   1.522   0.000  1.00  0.00     0.002 C 
ATOM     20  C   UNL     1       1.498   0.026   0.000  1.00  0.00    -0.020 C 
ATOM     21  C   UNL     1       2.632   2.363   0.000  1.00  0.00     0.005 C 
ATOM     22  C   UNL     1       1.605  -1.470   0.000  1.00  0.00     0.015 C 
ATOM     23  C   UNL     1       2.847  -0.629   0.000  1.00  0.00    -0.020 C 
ATOM     24  C   UNL     1       3.981   1.708   0.000  1.00  0.00     0.005 C 
ATOM     25  C   UNL     1       2.955  -2.125   0.000  1.00  0.00     0.010 C 
ATOM     26  C   UNL     1       4.089   0.212   0.000  1.00  0.00     0.004 C 
ATOM     27  C   UNL     1       4.304  -2.780   0.000  1.00  0.00     0.033 C 
ATOM     28  C   UNL     1       5.438  -0.443   0.000  1.00  0.00    -0.006 C 
ATOM     29  C   UNL     1       5.546  -1.939   0.000  1.00  0.00     0.120 C 
ATOM     30  C   UNL     1      -2.525   0.628   0.000  1.00  0.00     0.012 C 
ATOM     31  C   UNL     1       1.187   3.143   0.000  1.00  0.00     0.012 C 
ATOM     32  C   UNL     1       6.931  -0.596   0.000  1.00  0.00     0.014 C 
ATOM     33  C   UNL     1       5.849   1.000   0.000  1.00  0.00     0.014 C 
BRANCH  29  34
ATOM     34  O   UNL     1       6.896  -2.593   0.000  1.00  0.00    -0.393 OA
ATOM     35  H   UNL     1       0.000   0.000   0.000  1.00  0.00     0.210 HD
ENDBRANCH  29  34
ENDBRANCH  10  12
ENDBRANCH   9  10
ENDBRANCH   1   9
TORSDOF 8
