REMARK SMILES COc1ccc2ccc(=O)oc2c1[C@@H]1O[C@H]1C(C)C
REMARK SMILES IDX 3 1 4 2 5 3 6 4 7 5 8 6 9 7 10 8 11 9 12 10 13 11 2 12 1 13
REMARK SMILES IDX 14 14 15 15 16 16 17 17 18 18 19 19
REMARK H PARENT
ROOT
ATOM      1  C   UNL     1      -2.327   0.839   0.000  1.00  0.00     0.128 A 
ATOM      2  C   UNL     1      -3.312  -0.292   0.000  1.00  0.00     0.048 A 
ATOM      3  C   UNL     1      -2.824  -1.711   0.000  1.00  0.00     0.016 A 
ATOM      4  C   UNL     1      -1.352  -1.998   0.000  1.00  0.00     0.018 A 
ATOM      5  C   UNL     1      -0.864  -3.416   0.000  1.00  0.00     0.019 A 
ATOM      6  C   UNL     1       0.608  -3.703   0.000  1.00  0.00     0.094 A 
ATOM      7  C   UNL     1       1.593  -2.572   0.000  1.00  0.00     0.336 A 
ATOM      8  O   UNL     1       3.065  -2.859   0.000  1.00  0.00    -0.246 OA
ATOM      9  O   UNL     1       1.105  -1.153   0.000  1.00  0.00    -0.422 OA
ATOM     10  C   UNL     1      -0.367  -0.866   0.000  1.00  0.00     0.148 A 
ATOM     11  C   UNL     1      -0.855   0.552   0.000  1.00  0.00     0.069 A 
ENDROOT
BRANCH   1  12
ATOM     12  O   UNL     1      -2.814   2.258   0.000  1.00  0.00    -0.496 OA
ATOM     13  C   UNL     1      -4.287   2.545   0.000  1.00  0.00     0.278 C 
ENDBRANCH   1  12
BRANCH  11  14
ATOM     14  C   UNL     1       0.130   1.684   0.000  1.00  0.00     0.185 C 
ATOM     15  O   UNL     1       0.417   3.156   0.000  1.00  0.00    -0.364 OA
ATOM     16  C   UNL     1       1.549   2.171   0.000  1.00  0.00     0.155 C 
BRANCH  16  17
ATOM     17  C   UNL     1       3.021   1.884   0.000  1.00  0.00     0.015 C 
ATOM     18  C   UNL     1       4.006   3.016   0.000  1.00  0.00     0.010 C 
ATOM     19  C   UNL     1       3.509   0.466   0.000  1.00  0.00     0.010 C 
ENDBRANCH  16  17
ENDBRANCH  11  14
TORSDOF 3
