REMARK SMILES C=CC[C@@]12CC(=O)[C@H](O)[C@@](OC)([C@H](c3cc(OC)c4c(c3)OCO4)[C@H]1C)[C@H]2O
REMARK SMILES IDX 4 1 5 2 6 3 7 4 8 5 10 6 13 7 25 8 26 9 27 10 3 11 2 12 1 13
REMARK SMILES IDX 28 14 14 16 15 17 21 18 16 19 20 20 19 21 22 22 24 23 23 24
REMARK SMILES IDX 17 25 18 26 11 27 12 28 9 29
REMARK H PARENT 28 15 9 30
ROOT
ATOM      1  C   UNL     1       2.930   0.673   0.000  1.00  0.00     0.013 C 
ATOM      2  C   UNL     1       4.052  -0.322   0.000  1.00  0.00     0.089 C 
ATOM      3  C   UNL     1       3.752  -1.792   0.000  1.00  0.00     0.165 C 
ATOM      4  O   UNL     1       4.874  -2.787   0.000  1.00  0.00    -0.297 OA
ATOM      5  C   UNL     1       2.329  -2.267   0.000  1.00  0.00     0.216 C 
ATOM      6  C   UNL     1       1.206  -1.272   0.000  1.00  0.00     0.134 C 
ATOM      7  C   UNL     1       0.446   0.022   0.000  1.00  0.00     0.061 C 
ATOM      8  C   UNL     1       1.441   1.144   0.000  1.00  0.00     0.006 C 
ATOM      9  C   UNL     1       1.118   2.609   0.000  1.00  0.00     0.009 C 
ATOM     10  C   UNL     1       1.507   0.198   0.000  1.00  0.00     0.157 C 
ENDROOT
BRANCH   1  11
ATOM     11  C   UNL     1       3.230   2.142   0.000  1.00  0.00     0.037 C 
BRANCH  11  12
ATOM     12  C   UNL     1       4.653   2.617   0.000  1.00  0.00    -0.034 C 
ATOM     13  C   UNL     1       4.954   4.087   0.000  1.00  0.00     0.004 C 
ENDBRANCH  11  12
ENDBRANCH   1  11
BRANCH  10  14
ATOM     14  O   UNL     1       0.384   1.193   0.000  1.00  0.00    -0.389 OA
ATOM     15  H   UNL     1       0.000   0.000   0.000  1.00  0.00     0.211 HD
ENDBRANCH  10  14
BRANCH   7  16
ATOM     16  C   UNL     1      -1.047   0.167   0.000  1.00  0.00    -0.034 A 
ATOM     17  C   UNL     1      -1.919  -1.054   0.000  1.00  0.00     0.054 A 
ATOM     18  C   UNL     1      -1.667   1.532   0.000  1.00  0.00     0.055 A 
ATOM     19  C   UNL     1      -3.412  -0.908   0.000  1.00  0.00     0.165 A 
ATOM     20  C   UNL     1      -3.160   1.678   0.000  1.00  0.00     0.169 A 
ATOM     21  C   UNL     1      -4.032   0.457   0.000  1.00  0.00     0.207 A 
ATOM     22  O   UNL     1      -4.051   2.884   0.000  1.00  0.00    -0.453 OA
ATOM     23  O   UNL     1      -5.463   0.910   0.000  1.00  0.00    -0.450 OA
ATOM     24  C   UNL     1      -5.474   2.410   0.000  1.00  0.00     0.468 C 
BRANCH  19  25
ATOM     25  O   UNL     1      -4.284  -2.129   0.000  1.00  0.00    -0.493 OA
ATOM     26  C   UNL     1      -3.663  -3.494   0.000  1.00  0.00     0.278 C 
ENDBRANCH  19  25
ENDBRANCH   7  16
BRANCH   6  27
ATOM     27  O   UNL     1      -0.216  -1.746   0.000  1.00  0.00    -0.372 OA
ATOM     28  C   UNL     1      -0.517  -3.216   0.000  1.00  0.00     0.196 C 
ENDBRANCH   6  27
BRANCH   5  29
ATOM     29  O   UNL     1       2.029  -3.736   0.000  1.00  0.00    -0.382 OA
ATOM     30  H   UNL     1       0.000   0.000   0.000  1.00  0.00     0.211 HD
ENDBRANCH   5  29
TORSDOF 7
