REMARK SMILES CC(C)=CCCC(C)=CCOc1ccc(CCNC(=O)c2ccccc2)cc1
REMARK SMILES IDX 9 1 7 2 8 3 6 4 5 5 4 6 2 7 1 8 3 9 10 10 11 11 12 12 13 13
REMARK SMILES IDX 28 14 14 15 27 16 15 17 16 18 17 19 18 20 19 21 20 23 21 24
REMARK SMILES IDX 22 25 26 26 23 27 25 28 24 29
REMARK H PARENT 18 22
ROOT
ATOM      1  C   UNL     1      -5.317  -2.458   0.000  1.00  0.00     0.013 C 
ENDROOT
BRANCH   1   2
ATOM      2  C   UNL     1      -6.608  -1.693   0.000  1.00  0.00    -0.074 C 
ATOM      3  C   UNL     1      -7.915  -2.428   0.000  1.00  0.00     0.039 C 
BRANCH   2   4
ATOM      4  C   UNL     1      -6.591  -0.193   0.000  1.00  0.00     0.034 C 
BRANCH   4   5
ATOM      5  C   UNL     1      -7.881   0.572   0.000  1.00  0.00     0.032 C 
BRANCH   5   6
ATOM      6  C   UNL     1      -7.864   2.071   0.000  1.00  0.00    -0.028 C 
BRANCH   6   7
ATOM      7  C   UNL     1      -9.155   2.836   0.000  1.00  0.00    -0.080 C 
ATOM      8  C   UNL     1      -9.137   4.336   0.000  1.00  0.00     0.039 C 
ATOM      9  C   UNL     1     -10.462   2.101   0.000  1.00  0.00     0.039 C 
ENDBRANCH   6   7
ENDBRANCH   5   6
ENDBRANCH   4   5
ENDBRANCH   2   4
ENDBRANCH   1   2
BRANCH   1  10
ATOM     10  C   UNL     1      -4.010  -1.722   0.000  1.00  0.00     0.257 C 
BRANCH  10  11
ATOM     11  O   UNL     1      -2.719  -2.487   0.000  1.00  0.00    -0.490 OA
BRANCH  11  12
ATOM     12  C   UNL     1      -1.412  -1.752   0.000  1.00  0.00     0.119 A 
ATOM     13  C   UNL     1      -1.395  -0.252   0.000  1.00  0.00     0.047 A 
ATOM     14  C   UNL     1      -0.121  -2.517   0.000  1.00  0.00     0.047 A 
ATOM     15  C   UNL     1      -0.087   0.483   0.000  1.00  0.00     0.007 A 
ATOM     16  C   UNL     1       1.186  -1.781   0.000  1.00  0.00     0.007 A 
ATOM     17  C   UNL     1       1.203  -0.281   0.000  1.00  0.00    -0.046 A 
BRANCH  17  18
ATOM     18  C   UNL     1       2.511   0.454   0.000  1.00  0.00     0.057 C 
BRANCH  18  19
ATOM     19  C   UNL     1       3.801  -0.311   0.000  1.00  0.00     0.121 C 
BRANCH  19  20
ATOM     20  N   UNL     1       5.109   0.424   0.000  1.00  0.00    -0.352 N 
ATOM     21  C   UNL     1       6.399  -0.341   0.000  1.00  0.00     0.251 C 
ATOM     22  H   UNL     1       0.000   0.000   0.000  1.00  0.00     0.163 HD
ATOM     23  O   UNL     1       6.382  -1.840   0.000  1.00  0.00    -0.269 OA
BRANCH  21  24
ATOM     24  C   UNL     1       7.706   0.395   0.000  1.00  0.00     0.039 A 
ATOM     25  C   UNL     1       8.997  -0.370   0.000  1.00  0.00     0.014 A 
ATOM     26  C   UNL     1       7.723   1.895   0.000  1.00  0.00     0.014 A 
ATOM     27  C   UNL     1      10.304   0.365   0.000  1.00  0.00     0.001 A 
ATOM     28  C   UNL     1       9.031   2.630   0.000  1.00  0.00     0.001 A 
ATOM     29  C   UNL     1      10.321   1.865   0.000  1.00  0.00     0.000 A 
ENDBRANCH  21  24
ENDBRANCH  19  20
ENDBRANCH  18  19
ENDBRANCH  17  18
ENDBRANCH  11  12
ENDBRANCH  10  11
ENDBRANCH   1  10
TORSDOF 12
