REMARK SMILES COc1ccc(-c2coc3c(OC)c(O)cc(O)c3c2=O)cc1OC
REMARK SMILES IDX 7 1 8 2 9 3 10 4 11 5 14 6 16 7 17 8 19 9 20 10 21 11 6 12
REMARK SMILES IDX 3 13 4 14 23 15 5 16 22 17 2 18 1 19 24 20 25 21 18 22 12 24
REMARK SMILES IDX 13 25 15 26
REMARK H PARENT 18 23 15 27
ROOT
ATOM      1  C   UNL     1      -0.267  -0.172   0.000  1.00  0.00     0.065 A 
ATOM      2  C   UNL     1       0.293  -1.564   0.000  1.00  0.00     0.208 A 
ATOM      3  O   UNL     1       1.778  -1.774   0.000  1.00  0.00    -0.459 OA
ATOM      4  C   UNL     1       2.704  -0.593   0.000  1.00  0.00     0.187 A 
ATOM      5  C   UNL     1       4.189  -0.804   0.000  1.00  0.00     0.204 A 
ATOM      6  C   UNL     1       5.114   0.377   0.000  1.00  0.00     0.165 A 
ATOM      7  C   UNL     1       4.553   1.768   0.000  1.00  0.00     0.097 A 
ATOM      8  C   UNL     1       3.068   1.979   0.000  1.00  0.00     0.134 A 
ATOM      9  C   UNL     1       2.143   0.798   0.000  1.00  0.00     0.111 A 
ATOM     10  C   UNL     1       0.658   1.009   0.000  1.00  0.00     0.204 A 
ATOM     11  O   UNL     1       0.098   2.400   0.000  1.00  0.00    -0.288 OA
ENDROOT
BRANCH   1  12
ATOM     12  C   UNL     1      -1.752   0.038   0.000  1.00  0.00    -0.007 A 
ATOM     13  C   UNL     1      -4.722   0.460   0.000  1.00  0.00     0.160 A 
ATOM     14  C   UNL     1      -3.797   1.641   0.000  1.00  0.00     0.051 A 
ATOM     15  C   UNL     1      -4.162  -0.932   0.000  1.00  0.00     0.161 A 
ATOM     16  C   UNL     1      -2.312   1.430   0.000  1.00  0.00     0.013 A 
ATOM     17  C   UNL     1      -2.677  -1.142   0.000  1.00  0.00     0.059 A 
BRANCH  13  18
ATOM     18  O   UNL     1      -6.207   0.670   0.000  1.00  0.00    -0.493 OA
ATOM     19  C   UNL     1      -6.768   2.062   0.000  1.00  0.00     0.278 C 
ENDBRANCH  13  18
BRANCH  15  20
ATOM     20  O   UNL     1      -5.087  -2.113   0.000  1.00  0.00    -0.493 OA
ATOM     21  C   UNL     1      -4.527  -3.504   0.000  1.00  0.00     0.278 C 
ENDBRANCH  15  20
ENDBRANCH   1  12
BRANCH   8  22
ATOM     22  O   UNL     1       2.508   3.371   0.000  1.00  0.00    -0.507 OA
ATOM     23  H   UNL     1       0.000   0.000   0.000  1.00  0.00     0.293 HD
ENDBRANCH   8  22
BRANCH   5  24
ATOM     24  O   UNL     1       4.749  -2.195   0.000  1.00  0.00    -0.490 OA
ATOM     25  C   UNL     1       3.824  -3.376   0.000  1.00  0.00     0.278 C 
ENDBRANCH   5  24
BRANCH   6  26
ATOM     26  O   UNL     1       6.599   0.167   0.000  1.00  0.00    -0.504 OA
ATOM     27  H   UNL     1       0.000   0.000   0.000  1.00  0.00     0.293 HD
ENDBRANCH   6  26
TORSDOF 6
