REMARK SMILES CCCCCCCCCCCCCC(=O)O
REMARK SMILES IDX 8 1 7 2 6 3 5 4 4 5 3 6 2 7 1 8 9 9 10 10 11 11 12 12 13 13
REMARK SMILES IDX 14 14 15 15 16 16
REMARK H PARENT 16 17
ROOT
ATOM      1  C   UNL     1      -0.479   0.294   0.000  1.00  0.00     0.000 C 
ENDROOT
BRANCH   1   2
ATOM      2  C   UNL     1      -1.798  -0.421   0.000  1.00  0.00     0.000 C 
BRANCH   2   3
ATOM      3  C   UNL     1      -3.077   0.363   0.000  1.00  0.00    -0.000 C 
BRANCH   3   4
ATOM      4  C   UNL     1      -4.395  -0.352   0.000  1.00  0.00    -0.000 C 
BRANCH   4   5
ATOM      5  C   UNL     1      -5.674   0.432   0.000  1.00  0.00    -0.000 C 
BRANCH   5   6
ATOM      6  C   UNL     1      -6.992  -0.284   0.000  1.00  0.00    -0.000 C 
BRANCH   6   7
ATOM      7  C   UNL     1      -8.271   0.500   0.000  1.00  0.00    -0.003 C 
ATOM      8  C   UNL     1      -9.589  -0.215   0.000  1.00  0.00     0.004 C 
ENDBRANCH   6   7
ENDBRANCH   5   6
ENDBRANCH   4   5
ENDBRANCH   3   4
ENDBRANCH   2   3
ENDBRANCH   1   2
BRANCH   1   9
ATOM      9  C   UNL     1       0.799  -0.490   0.000  1.00  0.00     0.000 C 
BRANCH   9  10
ATOM     10  C   UNL     1       2.118   0.225   0.000  1.00  0.00     0.000 C 
BRANCH  10  11
ATOM     11  C   UNL     1       3.396  -0.559   0.000  1.00  0.00     0.001 C 
BRANCH  11  12
ATOM     12  C   UNL     1       4.715   0.157   0.000  1.00  0.00     0.012 C 
BRANCH  12  13
ATOM     13  C   UNL     1       5.994  -0.628   0.000  1.00  0.00     0.122 C 
BRANCH  13  14
ATOM     14  C   UNL     1       7.312   0.088   0.000  1.00  0.00     0.303 C 
ATOM     15  O   UNL     1       7.352   1.587   0.000  1.00  0.00    -0.252 OA
BRANCH  14  16
ATOM     16  O   UNL     1       8.591  -0.696   0.000  1.00  0.00    -0.481 OA
ATOM     17  H   UNL     1       0.000   0.000   0.000  1.00  0.00     0.296 HD
ENDBRANCH  14  16
ENDBRANCH  13  14
ENDBRANCH  12  13
ENDBRANCH  11  12
ENDBRANCH  10  11
ENDBRANCH   9  10
ENDBRANCH   1   9
TORSDOF 13
