REMARK SMILES COc1cc2c(cc1OC)-c1c(oc3c4c(ccc3c1=O)OC(C)(C)C=C4)CO2
REMARK SMILES IDX 3 1 4 2 5 3 6 4 7 5 8 6 11 7 12 8 28 9 29 10 13 11 14 12
REMARK SMILES IDX 15 13 27 14 26 15 23 16 24 17 25 18 22 19 16 20 17 21 18 22
REMARK SMILES IDX 19 23 20 24 21 25 2 26 1 27 9 28 10 29
REMARK H PARENT
ROOT
ATOM      1  C   UNL     1      -5.509  -0.291   0.000  1.00  0.00     0.164 A 
ATOM      2  C   UNL     1      -4.754  -1.587   0.000  1.00  0.00     0.097 A 
ATOM      3  C   UNL     1      -3.254  -1.581   0.000  1.00  0.00     0.132 A 
ATOM      4  C   UNL     1      -2.509  -0.279   0.000  1.00  0.00     0.035 A 
ATOM      5  C   UNL     1      -3.264   1.017   0.000  1.00  0.00     0.063 A 
ATOM      6  C   UNL     1      -4.764   1.011   0.000  1.00  0.00     0.161 A 
ATOM      7  C   UNL     1      -1.009  -0.273   0.000  1.00  0.00     0.076 A 
ATOM      8  C   UNL     1      -0.254  -1.569   0.000  1.00  0.00     0.153 A 
ATOM      9  C   UNL     1      -0.999  -2.871   0.000  1.00  0.00     0.305 C 
ATOM     10  O   UNL     1      -2.498  -2.877   0.000  1.00  0.00    -0.485 OA
ATOM     11  O   UNL     1       1.246  -1.563   0.000  1.00  0.00    -0.456 OA
ATOM     12  C   UNL     1       1.991  -0.261   0.000  1.00  0.00     0.149 A 
ATOM     13  C   UNL     1       3.491  -0.254   0.000  1.00  0.00     0.060 A 
ATOM     14  C   UNL     1       4.246  -1.550   0.000  1.00  0.00     0.015 C 
ATOM     15  C   UNL     1       5.746  -1.544   0.000  1.00  0.00     0.021 C 
ATOM     16  C   UNL     1       6.491  -0.242   0.000  1.00  0.00     0.122 C 
ATOM     17  C   UNL     1       7.636   0.727   0.000  1.00  0.00     0.061 C 
ATOM     18  C   UNL     1       7.644  -1.202   0.000  1.00  0.00     0.061 C 
ATOM     19  O   UNL     1       5.735   1.054   0.000  1.00  0.00    -0.483 OA
ATOM     20  C   UNL     1       4.236   1.048   0.000  1.00  0.00     0.131 A 
ATOM     21  C   UNL     1       3.480   2.344   0.000  1.00  0.00     0.048 A 
ATOM     22  C   UNL     1       1.980   2.337   0.000  1.00  0.00     0.020 A 
ATOM     23  C   UNL     1       1.236   1.035   0.000  1.00  0.00     0.066 A 
ATOM     24  C   UNL     1      -0.265   1.029   0.000  1.00  0.00     0.201 A 
ATOM     25  O   UNL     1      -1.020   2.325   0.000  1.00  0.00    -0.288 OA
ENDROOT
BRANCH   1  26
ATOM     26  O   UNL     1      -7.009  -0.298   0.000  1.00  0.00    -0.493 OA
ATOM     27  C   UNL     1      -7.754  -1.600   0.000  1.00  0.00     0.278 C 
ENDBRANCH   1  26
BRANCH   6  28
ATOM     28  O   UNL     1      -5.520   2.307   0.000  1.00  0.00    -0.493 OA
ATOM     29  C   UNL     1      -4.775   3.609   0.000  1.00  0.00     0.278 C 
ENDBRANCH   6  28
TORSDOF 2
