REMARK SMILES C=C(C)c1cc2c(C)ccc(C)c2c(OC(C)=O)c1OC(C)=O
REMARK SMILES IDX 4 1 5 2 6 3 7 4 8 5 9 6 10 7 11 8 12 9 13 10 14 11 19 12
REMARK SMILES IDX 2 13 1 14 3 15 20 16 21 17 22 18 23 19 15 20 16 21 17 22
REMARK SMILES IDX 18 23
REMARK H PARENT
ROOT
ATOM      1  C   UNL     1      -0.561  -1.426   0.000  1.00  0.00     0.024 A 
ATOM      2  C   UNL     1       0.848  -1.942   0.000  1.00  0.00     0.021 A 
ATOM      3  C   UNL     1       1.998  -0.979   0.000  1.00  0.00    -0.011 A 
ATOM      4  C   UNL     1       3.407  -1.495   0.000  1.00  0.00    -0.043 A 
ATOM      5  C   UNL     1       3.665  -2.973   0.000  1.00  0.00     0.045 C 
ATOM      6  C   UNL     1       4.558  -0.533   0.000  1.00  0.00     0.004 A 
ATOM      7  C   UNL     1       4.300   0.945   0.000  1.00  0.00     0.004 A 
ATOM      8  C   UNL     1       2.892   1.460   0.000  1.00  0.00    -0.039 A 
ATOM      9  C   UNL     1       2.634   2.938   0.000  1.00  0.00     0.045 C 
ATOM     10  C   UNL     1       1.741   0.498   0.000  1.00  0.00     0.032 A 
ATOM     11  C   UNL     1       0.332   1.014   0.000  1.00  0.00     0.182 A 
ATOM     12  C   UNL     1      -0.819   0.052   0.000  1.00  0.00     0.181 A 
ENDROOT
BRANCH   1  13
ATOM     13  C   UNL     1      -1.712  -2.388   0.000  1.00  0.00    -0.047 C 
ATOM     14  C   UNL     1      -1.454  -3.866   0.000  1.00  0.00     0.013 C 
ATOM     15  C   UNL     1      -2.777  -2.140   0.000  1.00  0.00     0.044 C 
ENDBRANCH   1  13
BRANCH  12  16
ATOM     16  O   UNL     1      -2.227   0.567   0.000  1.00  0.00    -0.422 OA
BRANCH  16  17
ATOM     17  C   UNL     1      -3.378  -0.395   0.000  1.00  0.00     0.308 C 
ATOM     18  C   UNL     1      -4.787   0.121   0.000  1.00  0.00     0.139 C 
ATOM     19  O   UNL     1      -3.323  -1.487   0.000  1.00  0.00    -0.252 OA
ENDBRANCH  16  17
ENDBRANCH  12  16
BRANCH  11  20
ATOM     20  O   UNL     1       0.074   2.491   0.000  1.00  0.00    -0.422 OA
BRANCH  20  21
ATOM     21  C   UNL     1      -1.334   3.007   0.000  1.00  0.00     0.308 C 
ATOM     22  C   UNL     1      -1.592   4.485   0.000  1.00  0.00     0.139 C 
ATOM     23  O   UNL     1      -2.485   2.045   0.000  1.00  0.00    -0.252 OA
ENDBRANCH  20  21
ENDBRANCH  11  20
TORSDOF 5
