REMARK SMILES COc1cc2c(c3oc4cc(OC(C)=O)c(OC(C)=O)cc4c(=O)c13)C=CC(C)(C)O2
REMARK SMILES IDX 3 1 4 2 5 3 6 4 26 5 27 6 28 7 29 8 30 9 31 10 7 11 25 12
REMARK SMILES IDX 23 13 24 14 22 15 21 16 16 17 11 18 10 19 9 20 8 21 2 22
REMARK SMILES IDX 1 23 17 24 18 25 19 26 20 27 12 28 13 29 14 30 15 31
REMARK H PARENT
ROOT
ATOM      1  C   UNL     1       2.349   2.325   0.000  1.00  0.00     0.137 A 
ATOM      2  C   UNL     1       3.777   1.865   0.000  1.00  0.00     0.094 A 
ATOM      3  C   UNL     1       4.092   0.399   0.000  1.00  0.00     0.135 A 
ATOM      4  C   UNL     1       2.980  -0.608   0.000  1.00  0.00     0.060 A 
ATOM      5  C   UNL     1       3.295  -2.074   0.000  1.00  0.00     0.015 C 
ATOM      6  C   UNL     1       4.723  -2.534   0.000  1.00  0.00     0.021 C 
ATOM      7  C   UNL     1       5.835  -1.528   0.000  1.00  0.00     0.122 C 
ATOM      8  C   UNL     1       7.225  -0.963   0.000  1.00  0.00     0.061 C 
ATOM      9  C   UNL     1       6.633  -2.798   0.000  1.00  0.00     0.061 C 
ATOM     10  O   UNL     1       5.520  -0.061   0.000  1.00  0.00    -0.483 OA
ATOM     11  C   UNL     1       1.552  -0.148   0.000  1.00  0.00     0.153 A 
ATOM     12  C   UNL     1       1.237   1.319   0.000  1.00  0.00     0.108 A 
ATOM     13  C   UNL     1      -0.191   1.779   0.000  1.00  0.00     0.204 A 
ATOM     14  O   UNL     1      -0.507   3.245   0.000  1.00  0.00    -0.288 OA
ATOM     15  C   UNL     1      -1.303   0.772   0.000  1.00  0.00     0.069 A 
ATOM     16  C   UNL     1      -2.731   1.232   0.000  1.00  0.00     0.067 A 
ATOM     17  C   UNL     1      -3.843   0.226   0.000  1.00  0.00     0.174 A 
ATOM     18  C   UNL     1      -3.528  -1.241   0.000  1.00  0.00     0.177 A 
ATOM     19  C   UNL     1      -2.100  -1.701   0.000  1.00  0.00     0.099 A 
ATOM     20  C   UNL     1      -0.988  -0.694   0.000  1.00  0.00     0.142 A 
ATOM     21  O   UNL     1       0.440  -1.154   0.000  1.00  0.00    -0.455 OA
ENDROOT
BRANCH   1  22
ATOM     22  O   UNL     1       2.033   3.791   0.000  1.00  0.00    -0.496 OA
ATOM     23  C   UNL     1       3.146   4.798   0.000  1.00  0.00     0.278 C 
ENDBRANCH   1  22
BRANCH  17  24
ATOM     24  O   UNL     1      -5.271   0.686   0.000  1.00  0.00    -0.423 OA
BRANCH  24  25
ATOM     25  C   UNL     1      -5.587   2.152   0.000  1.00  0.00     0.308 C 
ATOM     26  C   UNL     1      -7.014   2.612   0.000  1.00  0.00     0.139 C 
ATOM     27  O   UNL     1      -4.474   3.159   0.000  1.00  0.00    -0.252 OA
ENDBRANCH  24  25
ENDBRANCH  17  24
BRANCH  18  28
ATOM     28  O   UNL     1      -4.640  -2.247   0.000  1.00  0.00    -0.423 OA
BRANCH  28  29
ATOM     29  C   UNL     1      -4.325  -3.714   0.000  1.00  0.00     0.308 C 
ATOM     30  C   UNL     1      -5.437  -4.720   0.000  1.00  0.00     0.139 C 
ATOM     31  O   UNL     1      -2.897  -4.174   0.000  1.00  0.00    -0.252 OA
ENDBRANCH  28  29
ENDBRANCH  18  28
TORSDOF 5
