REMARK SMILES COc1cc([C@H]2O[C@@H](c3cc(OC)c(OC)c(OC)c3)[C@@H](C)[C@@H]2C)cc(OC)c1O
REMARK SMILES IDX 6 1 7 2 8 3 21 4 22 5 23 6 24 7 5 8 3 9 4 10 29 11 26 12
REMARK SMILES IDX 25 13 2 14 1 15 30 16 27 18 28 19 9 20 10 21 20 22 11 23
REMARK SMILES IDX 17 24 14 25 12 26 13 27 18 28 19 29 15 30 16 31
REMARK H PARENT 30 17
ROOT
ATOM      1  C   UNL     1       1.483   0.642   0.000  1.00  0.00     0.152 C 
ATOM      2  O   UNL     1       0.233  -0.188   0.000  1.00  0.00    -0.365 OA
ATOM      3  C   UNL     1      -0.942   0.744   0.000  1.00  0.00     0.152 C 
ATOM      4  C   UNL     1      -0.419   2.149   0.000  1.00  0.00     0.025 C 
ATOM      5  C   UNL     1      -1.249   3.399   0.000  1.00  0.00     0.011 C 
ATOM      6  C   UNL     1       1.080   2.087   0.000  1.00  0.00     0.025 C 
ATOM      7  C   UNL     1       2.011   3.262   0.000  1.00  0.00     0.011 C 
ENDROOT
BRANCH   1   8
ATOM      8  C   UNL     1       2.889   0.119   0.000  1.00  0.00    -0.011 A 
ATOM      9  C   UNL     1       4.545  -1.883   0.000  1.00  0.00     0.164 A 
ATOM     10  C   UNL     1       3.139  -1.360   0.000  1.00  0.00     0.057 A 
ATOM     11  C   UNL     1       5.700  -0.927   0.000  1.00  0.00     0.200 A 
ATOM     12  C   UNL     1       5.450   0.552   0.000  1.00  0.00     0.164 A 
ATOM     13  C   UNL     1       4.045   1.075   0.000  1.00  0.00     0.057 A 
BRANCH   9  14
ATOM     14  O   UNL     1       4.795  -3.362   0.000  1.00  0.00    -0.493 OA
ATOM     15  C   UNL     1       3.639  -4.318   0.000  1.00  0.00     0.278 C 
ENDBRANCH   9  14
BRANCH  11  16
ATOM     16  O   UNL     1       7.106  -1.450   0.000  1.00  0.00    -0.502 OA
ATOM     17  H   UNL     1       0.000   0.000   0.000  1.00  0.00     0.293 HD
ENDBRANCH  11  16
BRANCH  12  18
ATOM     18  O   UNL     1       6.606   1.508   0.000  1.00  0.00    -0.493 OA
ATOM     19  C   UNL     1       6.356   2.987   0.000  1.00  0.00     0.278 C 
ENDBRANCH  12  18
ENDBRANCH   1   8
BRANCH   3  20
ATOM     20  C   UNL     1      -2.387   0.340   0.000  1.00  0.00    -0.011 A 
ATOM     21  C   UNL     1      -3.458   1.390   0.000  1.00  0.00     0.057 A 
ATOM     22  C   UNL     1      -2.760  -1.113   0.000  1.00  0.00     0.057 A 
ATOM     23  C   UNL     1      -4.903   0.987   0.000  1.00  0.00     0.165 A 
ATOM     24  C   UNL     1      -4.205  -1.516   0.000  1.00  0.00     0.165 A 
ATOM     25  C   UNL     1      -5.276  -0.466   0.000  1.00  0.00     0.203 A 
BRANCH  23  26
ATOM     26  O   UNL     1      -5.975   2.036   0.000  1.00  0.00    -0.493 OA
ATOM     27  C   UNL     1      -5.602   3.489   0.000  1.00  0.00     0.278 C 
ENDBRANCH  23  26
BRANCH  24  28
ATOM     28  O   UNL     1      -4.578  -2.969   0.000  1.00  0.00    -0.493 OA
ATOM     29  C   UNL     1      -3.506  -4.018   0.000  1.00  0.00     0.278 C 
ENDBRANCH  24  28
BRANCH  25  30
ATOM     30  O   UNL     1      -6.721  -0.870   0.000  1.00  0.00    -0.490 OA
ATOM     31  C   UNL     1      -7.094  -2.322   0.000  1.00  0.00     0.278 C 
ENDBRANCH  25  30
ENDBRANCH   3  20
TORSDOF 8
