REMARK SMILES C=C(C)[C@H]1Cc2c(ccc3c2O[C@@H]2COc4cc(OC)c(OC)cc4[C@@H]2C3=O)O1
REMARK SMILES IDX 4 1 5 2 6 3 7 4 8 5 9 6 10 7 11 8 12 9 13 10 14 11 15 12
REMARK SMILES IDX 16 13 17 14 18 15 21 16 24 17 25 18 26 19 27 20 28 21 29 22
REMARK SMILES IDX 2 23 1 24 3 25 22 26 23 27 19 28 20 29
REMARK H PARENT
ROOT
ATOM      1  C   UNL     1      -5.919  -0.254   0.000  1.00  0.00     0.203 C 
ATOM      2  C   UNL     1      -4.586  -0.942   0.000  1.00  0.00     0.093 C 
ATOM      3  C   UNL     1      -3.520   0.113   0.000  1.00  0.00     0.041 A 
ATOM      4  C   UNL     1      -4.193   1.453   0.000  1.00  0.00     0.127 A 
ATOM      5  C   UNL     1      -3.369   2.706   0.000  1.00  0.00     0.048 A 
ATOM      6  C   UNL     1      -1.872   2.619   0.000  1.00  0.00     0.019 A 
ATOM      7  C   UNL     1      -1.198   1.279   0.000  1.00  0.00     0.061 A 
ATOM      8  C   UNL     1      -2.022   0.026   0.000  1.00  0.00     0.137 A 
ATOM      9  O   UNL     1      -1.349  -1.315   0.000  1.00  0.00    -0.485 OA
ATOM     10  C   UNL     1       0.149  -1.401   0.000  1.00  0.00     0.226 C 
ATOM     11  C   UNL     1       0.823  -2.742   0.000  1.00  0.00     0.275 C 
ATOM     12  O   UNL     1       2.320  -2.828   0.000  1.00  0.00    -0.489 OA
ATOM     13  C   UNL     1       3.144  -1.575   0.000  1.00  0.00     0.127 A 
ATOM     14  C   UNL     1       4.641  -1.662   0.000  1.00  0.00     0.097 A 
ATOM     15  C   UNL     1       5.465  -0.408   0.000  1.00  0.00     0.164 A 
ATOM     16  C   UNL     1       4.792   0.932   0.000  1.00  0.00     0.161 A 
ATOM     17  C   UNL     1       3.294   1.019   0.000  1.00  0.00     0.059 A 
ATOM     18  C   UNL     1       2.470  -0.235   0.000  1.00  0.00     0.013 A 
ATOM     19  C   UNL     1       0.973  -0.148   0.000  1.00  0.00     0.139 C 
ATOM     20  C   UNL     1       0.299   1.192   0.000  1.00  0.00     0.178 C 
ATOM     21  O   UNL     1       1.123   2.446   0.000  1.00  0.00    -0.293 OA
ATOM     22  O   UNL     1      -5.676   1.226   0.000  1.00  0.00    -0.485 OA
ENDROOT
BRANCH   1  23
ATOM     23  C   UNL     1      -7.259  -0.928   0.000  1.00  0.00    -0.040 C 
ATOM     24  C   UNL     1      -7.346  -2.425   0.000  1.00  0.00     0.011 C 
ATOM     25  C   UNL     1      -8.513  -0.104   0.000  1.00  0.00     0.043 C 
ENDBRANCH   1  23
BRANCH  16  26
ATOM     26  O   UNL     1       5.616   2.186   0.000  1.00  0.00    -0.493 OA
ATOM     27  C   UNL     1       7.113   2.099   0.000  1.00  0.00     0.278 C 
ENDBRANCH  16  26
BRANCH  15  28
ATOM     28  O   UNL     1       6.963  -0.495   0.000  1.00  0.00    -0.493 OA
ATOM     29  C   UNL     1       7.636  -1.835   0.000  1.00  0.00     0.278 C 
ENDBRANCH  15  28
TORSDOF 3
