REMARK SMILES COc1ccc(-c2oc3c(OC)c(OC)cc(O)c3c(=O)c2OC)cc1OC
REMARK SMILES IDX 7 1 22 2 20 3 21 4 19 5 17 6 16 7 13 8 10 9 9 10 8 11 6 12
REMARK SMILES IDX 3 13 4 14 26 15 5 16 25 17 2 18 1 19 27 20 28 21 23 22 24 23
REMARK SMILES IDX 11 24 12 25 18 26 14 28 15 29
REMARK H PARENT 18 27
ROOT
ATOM      1  C   UNL     1      -0.419  -0.255   0.000  1.00  0.00     0.181 A 
ATOM      2  C   UNL     1      -0.103  -1.721   0.000  1.00  0.00     0.210 A 
ATOM      3  C   UNL     1       1.325  -2.180   0.000  1.00  0.00     0.239 A 
ATOM      4  O   UNL     1       1.642  -3.646   0.000  1.00  0.00    -0.285 OA
ATOM      5  C   UNL     1       2.437  -1.173   0.000  1.00  0.00     0.115 A 
ATOM      6  C   UNL     1       3.865  -1.631   0.000  1.00  0.00     0.134 A 
ATOM      7  C   UNL     1       4.976  -0.624   0.000  1.00  0.00     0.097 A 
ATOM      8  C   UNL     1       4.659   0.842   0.000  1.00  0.00     0.168 A 
ATOM      9  C   UNL     1       3.231   1.301   0.000  1.00  0.00     0.205 A 
ATOM     10  C   UNL     1       2.120   0.294   0.000  1.00  0.00     0.188 A 
ATOM     11  O   UNL     1       0.692   0.752   0.000  1.00  0.00    -0.448 OA
ENDROOT
BRANCH   1  12
ATOM     12  C   UNL     1      -1.848   0.204   0.000  1.00  0.00     0.025 A 
ATOM     13  C   UNL     1      -4.704   1.121   0.000  1.00  0.00     0.160 A 
ATOM     14  C   UNL     1      -3.593   2.128   0.000  1.00  0.00     0.051 A 
ATOM     15  C   UNL     1      -4.387  -0.345   0.000  1.00  0.00     0.161 A 
ATOM     16  C   UNL     1      -2.164   1.670   0.000  1.00  0.00     0.016 A 
ATOM     17  C   UNL     1      -2.959  -0.804   0.000  1.00  0.00     0.062 A 
BRANCH  13  18
ATOM     18  O   UNL     1      -6.132   1.580   0.000  1.00  0.00    -0.493 OA
ATOM     19  C   UNL     1      -6.449   3.046   0.000  1.00  0.00     0.278 C 
ENDBRANCH  13  18
BRANCH  15  20
ATOM     20  O   UNL     1      -5.498  -1.353   0.000  1.00  0.00    -0.493 OA
ATOM     21  C   UNL     1      -6.927  -0.894   0.000  1.00  0.00     0.278 C 
ENDBRANCH  15  20
ENDBRANCH   1  12
BRANCH   2  22
ATOM     22  O   UNL     1      -1.214  -2.729   0.000  1.00  0.00    -0.490 OA
ATOM     23  C   UNL     1      -2.642  -2.270   0.000  1.00  0.00     0.278 C 
ENDBRANCH   2  22
BRANCH   9  24
ATOM     24  O   UNL     1       2.914   2.767   0.000  1.00  0.00    -0.490 OA
ATOM     25  C   UNL     1       4.026   3.775   0.000  1.00  0.00     0.278 C 
ENDBRANCH   9  24
BRANCH   6  26
ATOM     26  O   UNL     1       4.182  -3.097   0.000  1.00  0.00    -0.507 OA
ATOM     27  H   UNL     1       0.000   0.000   0.000  1.00  0.00     0.293 HD
ENDBRANCH   6  26
BRANCH   8  28
ATOM     28  O   UNL     1       5.771   1.850   0.000  1.00  0.00    -0.493 OA
ATOM     29  C   UNL     1       7.199   1.391   0.000  1.00  0.00     0.278 C 
ENDBRANCH   8  28
TORSDOF 7
