REMARK SMILES C=CC[C@@]1(OC)C=C2C(=C(OC)C1=O)O[C@H](c1ccc3c(c1)OCO3)[C@H]2C
REMARK SMILES IDX 4 1 7 2 8 3 9 4 10 5 13 6 14 7 15 8 16 9 26 10 27 11 3 12
REMARK SMILES IDX 2 13 1 14 5 15 6 16 11 17 12 18 17 19 18 20 22 21 19 22
REMARK SMILES IDX 21 23 20 24 23 25 25 26 24 27
REMARK H PARENT
ROOT
ATOM      1  C   UNL     1       3.544   0.467   0.000  1.00  0.00     0.156 C 
ATOM      2  C   UNL     1       2.328   1.345   0.000  1.00  0.00     0.024 C 
ATOM      3  C   UNL     1       0.959   0.732   0.000  1.00  0.00     0.004 C 
ATOM      4  C   UNL     1       0.806  -0.760   0.000  1.00  0.00     0.169 C 
ATOM      5  C   UNL     1       2.022  -1.639   0.000  1.00  0.00     0.208 C 
ATOM      6  C   UNL     1       3.391  -1.025   0.000  1.00  0.00     0.237 C 
ATOM      7  O   UNL     1       4.607  -1.904   0.000  1.00  0.00    -0.287 OA
ATOM      8  O   UNL     1      -0.660  -1.076   0.000  1.00  0.00    -0.481 OA
ATOM      9  C   UNL     1      -1.413   0.221   0.000  1.00  0.00     0.211 C 
ATOM     10  C   UNL     1      -0.412   1.339   0.000  1.00  0.00     0.065 C 
ATOM     11  C   UNL     1      -0.728   2.805   0.000  1.00  0.00     0.017 C 
ENDROOT
BRANCH   1  12
ATOM     12  C   UNL     1       4.987   0.057   0.000  1.00  0.00     0.075 C 
BRANCH  12  13
ATOM     13  C   UNL     1       6.063   1.102   0.000  1.00  0.00    -0.031 C 
ATOM     14  C   UNL     1       7.506   0.692   0.000  1.00  0.00     0.004 C 
ENDBRANCH  12  13
ENDBRANCH   1  12
BRANCH   1  15
ATOM     15  O   UNL     1       4.198   1.817   0.000  1.00  0.00    -0.365 OA
ATOM     16  C   UNL     1       5.694   1.925   0.000  1.00  0.00     0.196 C 
ENDBRANCH   1  15
BRANCH   5  17
ATOM     17  O   UNL     1       1.869  -3.131   0.000  1.00  0.00    -0.490 OA
ATOM     18  C   UNL     1       3.085  -4.010   0.000  1.00  0.00     0.278 C 
ENDBRANCH   5  17
BRANCH   9  19
ATOM     19  C   UNL     1      -2.905   0.374   0.000  1.00  0.00    -0.003 A 
ATOM     20  C   UNL     1      -3.519   1.743   0.000  1.00  0.00     0.011 A 
ATOM     21  C   UNL     1      -3.784  -0.841   0.000  1.00  0.00     0.058 A 
ATOM     22  C   UNL     1      -5.011   1.896   0.000  1.00  0.00     0.051 A 
ATOM     23  C   UNL     1      -5.276  -0.688   0.000  1.00  0.00     0.166 A 
ATOM     24  C   UNL     1      -5.890   0.681   0.000  1.00  0.00     0.165 A 
ATOM     25  O   UNL     1      -6.388  -1.695   0.000  1.00  0.00    -0.454 OA
ATOM     26  O   UNL     1      -7.381   0.520   0.000  1.00  0.00    -0.454 OA
ATOM     27  C   UNL     1      -7.689  -0.948   0.000  1.00  0.00     0.468 C 
ENDBRANCH   9  19
TORSDOF 5
