REMARK SMILES CC(=O)O[C@H]1[C@H](Oc2cc3c(=O)oc4c(O)c(O)cc5c(=O)oc(c2O)c3c45)O[C@@H](C)[C@H](O)[C@H]1O
REMARK SMILES IDX 5 1 6 2 29 3 30 4 31 5 32 6 34 7 4 8 2 9 1 10 3 11 7 12 8 13
REMARK SMILES IDX 9 14 25 15 10 16 24 17 27 18 11 19 23 20 28 21 13 22 21 23
REMARK SMILES IDX 14 24 20 25 15 26 19 27 17 28 12 29 22 30 26 31 16 33 18 35
REMARK SMILES IDX 35 37 33 39
REMARK H PARENT 26 32 16 34 18 36 35 38 33 40
ROOT
ATOM      1  C   UNL     1      -4.573   0.390   0.000  1.00  0.00     0.276 C 
ATOM      2  C   UNL     1      -3.100   0.106   0.000  1.00  0.00     0.352 C 
ATOM      3  O   UNL     1      -2.610  -1.311   0.000  1.00  0.00    -0.334 OA
ATOM      4  C   UNL     1      -3.592  -2.445   0.000  1.00  0.00     0.151 C 
ATOM      5  C   UNL     1      -3.101  -3.862   0.000  1.00  0.00     0.042 C 
ATOM      6  C   UNL     1      -5.065  -2.161   0.000  1.00  0.00     0.175 C 
ATOM      7  C   UNL     1      -5.555  -0.744   0.000  1.00  0.00     0.193 C 
ENDROOT
BRANCH   1   8
ATOM      8  O   UNL     1      -5.064   1.807   0.000  1.00  0.00    -0.453 OA
BRANCH   8   9
ATOM      9  C   UNL     1      -6.537   2.091   0.000  1.00  0.00     0.303 C 
ATOM     10  C   UNL     1      -7.027   3.509   0.000  1.00  0.00     0.139 C 
ATOM     11  O   UNL     1      -7.519   0.958   0.000  1.00  0.00    -0.253 OA
ENDBRANCH   8   9
ENDBRANCH   1   8
BRANCH   2  12
ATOM     12  O   UNL     1      -2.118   1.240   0.000  1.00  0.00    -0.457 OA
BRANCH  12  13
ATOM     13  C   UNL     1      -0.645   0.956   0.000  1.00  0.00     0.169 A 
ATOM     14  C   UNL     1      -0.154  -0.462   0.000  1.00  0.00     0.067 A 
ATOM     15  C   UNL     1       0.337   2.090   0.000  1.00  0.00     0.202 A 
ATOM     16  C   UNL     1       1.319  -0.746   0.000  1.00  0.00     0.076 A 
ATOM     17  C   UNL     1       1.810   1.806   0.000  1.00  0.00     0.185 A 
ATOM     18  C   UNL     1       2.301   0.388   0.000  1.00  0.00     0.048 A 
ATOM     19  C   UNL     1       1.809  -2.163   0.000  1.00  0.00     0.344 A 
ATOM     20  O   UNL     1       2.792   2.939   0.000  1.00  0.00    -0.418 OA
ATOM     21  C   UNL     1       3.774   0.104   0.000  1.00  0.00     0.048 A 
ATOM     22  O   UNL     1       3.282  -2.447   0.000  1.00  0.00    -0.418 OA
ATOM     23  C   UNL     1       4.265   2.655   0.000  1.00  0.00     0.344 A 
ATOM     24  C   UNL     1       4.264  -1.313   0.000  1.00  0.00     0.185 A 
ATOM     25  C   UNL     1       4.756   1.238   0.000  1.00  0.00     0.076 A 
ATOM     26  C   UNL     1       5.737  -1.597   0.000  1.00  0.00     0.202 A 
ATOM     27  C   UNL     1       6.229   0.954   0.000  1.00  0.00     0.066 A 
ATOM     28  C   UNL     1       6.719  -0.463   0.000  1.00  0.00     0.162 A 
ATOM     29  O   UNL     1       0.827  -3.297   0.000  1.00  0.00    -0.246 OA
ATOM     30  O   UNL     1       5.248   3.789   0.000  1.00  0.00    -0.246 OA
BRANCH  15  31
ATOM     31  O   UNL     1      -0.153   3.507   0.000  1.00  0.00    -0.502 OA
ATOM     32  H   UNL     1       0.000   0.000   0.000  1.00  0.00     0.293 HD
ENDBRANCH  15  31
BRANCH  26  33
ATOM     33  O   UNL     1       6.228  -3.014   0.000  1.00  0.00    -0.502 OA
ATOM     34  H   UNL     1       0.000   0.000   0.000  1.00  0.00     0.293 HD
ENDBRANCH  26  33
BRANCH  28  35
ATOM     35  O   UNL     1       8.192  -0.747   0.000  1.00  0.00    -0.504 OA
ATOM     36  H   UNL     1       0.000   0.000   0.000  1.00  0.00     0.293 HD
ENDBRANCH  28  35
ENDBRANCH  12  13
ENDBRANCH   2  12
BRANCH   7  37
ATOM     37  O   UNL     1      -7.028  -0.460   0.000  1.00  0.00    -0.386 OA
ATOM     38  H   UNL     1       0.000   0.000   0.000  1.00  0.00     0.211 HD
ENDBRANCH   7  37
BRANCH   6  39
ATOM     39  O   UNL     1      -6.047  -3.295   0.000  1.00  0.00    -0.388 OA
ATOM     40  H   UNL     1       0.000   0.000   0.000  1.00  0.00     0.211 HD
ENDBRANCH   6  39
TORSDOF 9
