REMARK SMILES COC(=O)C1=CO[C@@H](OC(C)=O)[C@@H]2[C@@H](C)[C@@H](OC(C)=O)C[C@H]12
REMARK SMILES IDX 5 1 6 2 7 3 8 4 13 5 14 6 15 7 16 8 21 9 22 10 3 11 4 12
REMARK SMILES IDX 2 13 1 14 9 15 10 16 11 17 12 18 17 19 18 20 19 21 20 22
REMARK H PARENT
ROOT
ATOM      1  C   UNL     1      -0.157  -1.886   0.000  1.00  0.00     0.076 C 
ATOM      2  C   UNL     1      -1.636  -2.139   0.000  1.00  0.00     0.203 C 
ATOM      3  O   UNL     1      -2.595  -0.986   0.000  1.00  0.00    -0.461 OA
ATOM      4  C   UNL     1      -2.075   0.421   0.000  1.00  0.00     0.369 C 
ATOM      5  C   UNL     1      -0.597   0.675   0.000  1.00  0.00     0.086 C 
ATOM      6  C   UNL     1       0.204   1.943   0.000  1.00  0.00     0.038 C 
ATOM      7  C   UNL     1      -0.351   3.337   0.000  1.00  0.00     0.012 C 
ATOM      8  C   UNL     1       1.658   1.573   0.000  1.00  0.00     0.180 C 
ATOM      9  C   UNL     1       1.756   0.077   0.000  1.00  0.00     0.055 C 
ATOM     10  C   UNL     1       0.362  -0.479   0.000  1.00  0.00     0.044 C 
ENDROOT
BRANCH   1  11
ATOM     11  C   UNL     1       0.801  -3.039   0.000  1.00  0.00     0.337 C 
ATOM     12  O   UNL     1       2.280  -2.786   0.000  1.00  0.00    -0.246 OA
BRANCH  11  13
ATOM     13  O   UNL     1       0.282  -4.447   0.000  1.00  0.00    -0.466 OA
ATOM     14  C   UNL     1       1.240  -5.600   0.000  1.00  0.00     0.282 C 
ENDBRANCH  11  13
ENDBRANCH   1  11
BRANCH   4  15
ATOM     15  O   UNL     1      -3.034   1.575   0.000  1.00  0.00    -0.425 OA
BRANCH  15  16
ATOM     16  C   UNL     1      -4.512   1.321   0.000  1.00  0.00     0.305 C 
ATOM     17  C   UNL     1      -5.471   2.475   0.000  1.00  0.00     0.139 C 
ATOM     18  O   UNL     1      -5.032  -0.086   0.000  1.00  0.00    -0.253 OA
ENDBRANCH  15  16
ENDBRANCH   4  15
BRANCH   8  19
ATOM     19  O   UNL     1       2.812   2.532   0.000  1.00  0.00    -0.462 OA
BRANCH  19  20
ATOM     20  C   UNL     1       4.219   2.013   0.000  1.00  0.00     0.302 C 
ATOM     21  C   UNL     1       5.372   2.971   0.000  1.00  0.00     0.139 C 
ATOM     22  O   UNL     1       4.472   0.534   0.000  1.00  0.00    -0.253 OA
ENDBRANCH  19  20
ENDBRANCH   8  19
TORSDOF 6
