REMARK SMILES Oc1cccc2c1[C@@H](O)[C@H]1O[C@H]1[C@H]2O
REMARK SMILES IDX 2 1 3 2 4 3 5 4 6 5 7 6 8 7 10 8 11 9 12 10 13 11 1 12 9 14
REMARK SMILES IDX 14 16
REMARK H PARENT 1 13 9 15 14 17
ROOT
ATOM      1  C   UNL     1       1.991  -0.691   0.000  1.00  0.00     0.121 A 
ATOM      2  C   UNL     1       2.986   0.432   0.000  1.00  0.00     0.046 A 
ATOM      3  C   UNL     1       2.511   1.855   0.000  1.00  0.00     0.004 A 
ATOM      4  C   UNL     1       1.042   2.155   0.000  1.00  0.00     0.007 A 
ATOM      5  C   UNL     1       0.047   1.032   0.000  1.00  0.00    -0.007 A 
ATOM      6  C   UNL     1       0.522  -0.391   0.000  1.00  0.00     0.031 A 
ATOM      7  C   UNL     1      -0.473  -1.513   0.000  1.00  0.00     0.180 C 
ATOM      8  C   UNL     1      -1.943  -1.213   0.000  1.00  0.00     0.184 C 
ATOM      9  O   UNL     1      -3.412  -0.913   0.000  1.00  0.00    -0.363 OA
ATOM     10  C   UNL     1      -2.418   0.210   0.000  1.00  0.00     0.184 C 
ATOM     11  C   UNL     1      -1.423   1.332   0.000  1.00  0.00     0.176 C 
ENDROOT
BRANCH   1  12
ATOM     12  O   UNL     1       2.466  -2.114   0.000  1.00  0.00    -0.508 OA
ATOM     13  H   UNL     1       0.000   0.000   0.000  1.00  0.00     0.293 HD
ENDBRANCH   1  12
BRANCH   7  14
ATOM     14  O   UNL     1       0.002  -2.936   0.000  1.00  0.00    -0.385 OA
ATOM     15  H   UNL     1       0.000   0.000   0.000  1.00  0.00     0.211 HD
ENDBRANCH   7  14
BRANCH  11  16
ATOM     16  O   UNL     1      -1.898   2.755   0.000  1.00  0.00    -0.386 OA
ATOM     17  H   UNL     1       0.000   0.000   0.000  1.00  0.00     0.211 HD
ENDBRANCH  11  16
TORSDOF 3
