REMARK SMILES C=CC[C@@]12C=C(OC)[C@H](O)[C@@](OC)(C1O)[C@@H](c1ccc3c(c1)OCO3)[C@@H]2C
REMARK SMILES IDX 4 1 5 2 6 3 9 4 11 5 14 6 16 7 26 8 27 9 3 10 2 11 1 12
REMARK SMILES IDX 15 13 7 15 8 16 12 17 13 18 17 19 18 20 22 21 19 22 21 23
REMARK SMILES IDX 20 24 23 25 25 26 24 27 10 28
REMARK H PARENT 15 14 10 29
ROOT
ATOM      1  C   UNL     1       2.158   1.223   0.000  1.00  0.00     0.028 C 
ATOM      2  C   UNL     1       3.516   0.585   0.000  1.00  0.00     0.028 C 
ATOM      3  C   UNL     1       3.642  -0.910   0.000  1.00  0.00     0.124 C 
ATOM      4  C   UNL     1       2.410  -1.766   0.000  1.00  0.00     0.214 C 
ATOM      5  C   UNL     1       1.053  -1.128   0.000  1.00  0.00     0.134 C 
ATOM      6  C   UNL     1       0.927   0.367   0.000  1.00  0.00     0.161 C 
ATOM      7  C   UNL     1       0.032   0.053   0.000  1.00  0.00     0.061 C 
ATOM      8  C   UNL     1       0.670   1.411   0.000  1.00  0.00     0.010 C 
ATOM      9  C   UNL     1      -0.053   2.725   0.000  1.00  0.00     0.009 C 
ENDROOT
BRANCH   1  10
ATOM     10  C   UNL     1       2.032   2.718   0.000  1.00  0.00     0.041 C 
BRANCH  10  11
ATOM     11  C   UNL     1       3.264   3.574   0.000  1.00  0.00    -0.034 C 
ATOM     12  C   UNL     1       3.138   5.069   0.000  1.00  0.00     0.004 C 
ENDBRANCH  10  11
ENDBRANCH   1  10
BRANCH   6  13
ATOM     13  O   UNL     1      -0.430   1.005   0.000  1.00  0.00    -0.389 OA
ATOM     14  H   UNL     1       0.000   0.000   0.000  1.00  0.00     0.211 HD
ENDBRANCH   6  13
BRANCH   3  15
ATOM     15  O   UNL     1       4.999  -1.548   0.000  1.00  0.00    -0.499 OA
ATOM     16  C   UNL     1       5.125  -3.043   0.000  1.00  0.00     0.278 C 
ENDBRANCH   3  15
BRANCH   5  17
ATOM     17  O   UNL     1      -0.179  -1.984   0.000  1.00  0.00    -0.372 OA
ATOM     18  C   UNL     1      -0.053  -3.479   0.000  1.00  0.00     0.196 C 
ENDBRANCH   5  17
BRANCH   7  19
ATOM     19  C   UNL     1      -1.441  -0.228   0.000  1.00  0.00    -0.038 A 
ATOM     20  C   UNL     1      -1.934  -1.645   0.000  1.00  0.00     0.008 A 
ATOM     21  C   UNL     1      -2.422   0.907   0.000  1.00  0.00     0.054 A 
ATOM     22  C   UNL     1      -3.408  -1.926   0.000  1.00  0.00     0.051 A 
ATOM     23  C   UNL     1      -3.895   0.625   0.000  1.00  0.00     0.166 A 
ATOM     24  C   UNL     1      -4.388  -0.791   0.000  1.00  0.00     0.165 A 
ATOM     25  O   UNL     1      -5.090   1.532   0.000  1.00  0.00    -0.454 OA
ATOM     26  O   UNL     1      -5.888  -0.760   0.000  1.00  0.00    -0.454 OA
ATOM     27  C   UNL     1      -6.322   0.676   0.000  1.00  0.00     0.468 C 
ENDBRANCH   7  19
BRANCH   4  28
ATOM     28  O   UNL     1       2.536  -3.261   0.000  1.00  0.00    -0.382 OA
ATOM     29  H   UNL     1       0.000   0.000   0.000  1.00  0.00     0.211 HD
ENDBRANCH   4  28
TORSDOF 7
