REMARK SMILES CS[C@H]1NC(=O)[C@](Cc2ccc(OCC=C(C)C)cc2)(SC)NC1=O
REMARK SMILES IDX 9 1 10 2 11 3 12 4 19 5 20 6 8 7 7 8 3 9 4 10 24 11 5 12
REMARK SMILES IDX 23 13 25 15 6 16 2 18 1 19 21 20 22 21 13 22 14 23 15 24
REMARK SMILES IDX 16 25 17 26 18 27
REMARK H PARENT 4 14 23 17
ROOT
ATOM      1  C   UNL     1      -0.063   1.442   0.000  1.00  0.00    -0.044 A 
ATOM      2  C   UNL     1       0.655   0.125   0.000  1.00  0.00     0.007 A 
ATOM      3  C   UNL     1       2.155   0.088   0.000  1.00  0.00     0.047 A 
ATOM      4  C   UNL     1       2.936   1.369   0.000  1.00  0.00     0.119 A 
ATOM      5  C   UNL     1       2.218   2.686   0.000  1.00  0.00     0.047 A 
ATOM      6  C   UNL     1       0.719   2.722   0.000  1.00  0.00     0.007 A 
ENDROOT
BRANCH   1   7
ATOM      7  C   UNL     1      -1.562   1.479   0.000  1.00  0.00     0.085 C 
BRANCH   7   8
ATOM      8  C   UNL     1      -2.344   0.198   0.000  1.00  0.00     0.169 C 
ATOM      9  C   UNL     1      -5.187  -0.759   0.000  1.00  0.00     0.230 C 
ATOM     10  N   UNL     1      -4.891   0.712   0.000  1.00  0.00    -0.333 N 
ATOM     11  C   UNL     1      -4.062  -1.751   0.000  1.00  0.00     0.254 C 
ATOM     12  C   UNL     1      -3.469   1.190   0.000  1.00  0.00     0.257 C 
ATOM     13  N   UNL     1      -2.640  -1.272   0.000  1.00  0.00    -0.331 N 
ATOM     14  H   UNL     1       0.000   0.000   0.000  1.00  0.00     0.165 HD
ATOM     15  O   UNL     1      -4.358  -3.221   0.000  1.00  0.00    -0.272 OA
ATOM     16  O   UNL     1      -3.173   2.660   0.000  1.00  0.00    -0.271 OA
ATOM     17  H   UNL     1       0.000   0.000   0.000  1.00  0.00     0.165 HD
BRANCH   9  18
ATOM     18  S   UNL     1      -6.609  -1.237   0.000  1.00  0.00    -0.131 SA
ATOM     19  C   UNL     1      -7.734  -0.245   0.000  1.00  0.00     0.088 C 
ENDBRANCH   9  18
BRANCH   8  20
ATOM     20  S   UNL     1      -0.947  -0.349   0.000  1.00  0.00    -0.127 SA
ATOM     21  C   UNL     1      -0.723  -1.832   0.000  1.00  0.00     0.088 C 
ENDBRANCH   8  20
ENDBRANCH   7   8
ENDBRANCH   1   7
BRANCH   4  22
ATOM     22  O   UNL     1       4.436   1.332   0.000  1.00  0.00    -0.490 OA
BRANCH  22  23
ATOM     23  C   UNL     1       5.154   0.015   0.000  1.00  0.00     0.257 C 
BRANCH  23  24
ATOM     24  C   UNL     1       6.654  -0.021   0.000  1.00  0.00     0.012 C 
BRANCH  24  25
ATOM     25  C   UNL     1       7.372  -1.338   0.000  1.00  0.00    -0.077 C 
ATOM     26  C   UNL     1       8.871  -1.375   0.000  1.00  0.00     0.039 C 
ATOM     27  C   UNL     1       6.590  -2.619   0.000  1.00  0.00     0.039 C 
ENDBRANCH  24  25
ENDBRANCH  23  24
ENDBRANCH  22  23
ENDBRANCH   4  22
TORSDOF 8
