REMARK SMILES C=C1[C@@H](C2C=CC(=O)C(C)(C)[C@@H]2CC(=O)OC)[C@H](OC(C)=O)[C@H](OC(C)=O)[C@@]2(C)[C@H](c3ccoc3)C[C@@H]3O[C@]132
REMARK SMILES IDX 4 1 5 2 6 3 7 4 8 5 9 6 10 7 11 8 12 9 3 10 2 11 39 12 18 13
REMARK SMILES IDX 38 14 28 15 37 16 23 17 30 18 36 19 1 20 29 21 19 22 20 23
REMARK SMILES IDX 21 24 22 25 24 26 25 27 26 28 27 29 31 30 35 31 32 32 34 33
REMARK SMILES IDX 33 34 13 35 14 36 15 37 16 38 17 39
REMARK H PARENT
ROOT
ATOM      1  C   UNL     1      -2.182   1.087   0.000  1.00  0.00     0.028 C 
ATOM      2  C   UNL     1      -2.287   2.584   0.000  1.00  0.00    -0.019 C 
ATOM      3  C   UNL     1      -3.636   3.241   0.000  1.00  0.00     0.044 C 
ATOM      4  C   UNL     1      -4.879   2.401   0.000  1.00  0.00     0.161 C 
ATOM      5  O   UNL     1      -6.228   3.058   0.000  1.00  0.00    -0.294 OA
ATOM      6  C   UNL     1      -4.773   0.905   0.000  1.00  0.00     0.031 C 
ATOM      7  C   UNL     1      -5.186  -0.537   0.000  1.00  0.00     0.020 C 
ATOM      8  C   UNL     1      -6.265   1.061   0.000  1.00  0.00     0.020 C 
ATOM      9  C   UNL     1      -3.425   0.248   0.000  1.00  0.00     0.021 C 
ENDROOT
BRANCH   1  10
ATOM     10  C   UNL     1      -0.833   0.431   0.000  1.00  0.00     0.070 C 
ATOM     11  C   UNL     1      -0.728  -1.065   0.000  1.00  0.00    -0.035 C 
ATOM     12  C   UNL     1       0.621  -1.722   0.000  1.00  0.00     0.126 C 
ATOM     13  C   UNL     1       0.410   1.270   0.000  1.00  0.00     0.225 C 
ATOM     14  O   UNL     1      -0.420  -2.802   0.000  1.00  0.00    -0.361 OA
ATOM     15  C   UNL     1       1.864  -0.883   0.000  1.00  0.00     0.051 C 
ATOM     16  C   UNL     1       1.035  -3.164   0.000  1.00  0.00     0.157 C 
ATOM     17  C   UNL     1       1.758   0.614   0.000  1.00  0.00     0.227 C 
ATOM     18  C   UNL     1       3.047  -1.806   0.000  1.00  0.00     0.038 C 
ATOM     19  C   UNL     1       2.534  -3.215   0.000  1.00  0.00     0.045 C 
ATOM     20  C   UNL     1      -1.971  -1.905   0.000  1.00  0.00     0.011 C 
ATOM     21  C   UNL     1       3.188  -0.178   0.000  1.00  0.00     0.020 C 
BRANCH  13  22
ATOM     22  O   UNL     1       0.304   2.767   0.000  1.00  0.00    -0.458 OA
BRANCH  22  23
ATOM     23  C   UNL     1       1.547   3.606   0.000  1.00  0.00     0.303 C 
ATOM     24  C   UNL     1       1.442   5.102   0.000  1.00  0.00     0.139 C 
ATOM     25  O   UNL     1       2.896   2.949   0.000  1.00  0.00    -0.253 OA
ENDBRANCH  22  23
ENDBRANCH  13  22
BRANCH  17  26
ATOM     26  O   UNL     1       3.002   1.453   0.000  1.00  0.00    -0.458 OA
BRANCH  26  27
ATOM     27  C   UNL     1       4.350   0.796   0.000  1.00  0.00     0.303 C 
ATOM     28  C   UNL     1       5.593   1.636   0.000  1.00  0.00     0.139 C 
ATOM     29  O   UNL     1       4.597   0.038   0.000  1.00  0.00    -0.253 OA
ENDBRANCH  26  27
ENDBRANCH  17  26
BRANCH  18  30
ATOM     30  C   UNL     1       4.488  -1.391   0.000  1.00  0.00    -0.006 A 
ATOM     31  C   UNL     1       5.000   0.019   0.000  1.00  0.00     0.198 A 
ATOM     32  C   UNL     1       5.671  -2.314   0.000  1.00  0.00     0.046 A 
ATOM     33  O   UNL     1       6.500  -0.033   0.000  1.00  0.00    -0.472 OA
ATOM     34  C   UNL     1       6.914  -1.474   0.000  1.00  0.00     0.195 A 
ENDBRANCH  18  30
ENDBRANCH   1  10
BRANCH   9  35
ATOM     35  C   UNL     1      -3.319  -1.248   0.000  1.00  0.00     0.128 C 
BRANCH  35  36
ATOM     36  C   UNL     1      -4.562  -2.088   0.000  1.00  0.00     0.305 C 
ATOM     37  O   UNL     1      -5.911  -1.431   0.000  1.00  0.00    -0.252 OA
BRANCH  36  38
ATOM     38  O   UNL     1      -4.457  -3.584   0.000  1.00  0.00    -0.469 OA
ATOM     39  C   UNL     1      -5.700  -4.424   0.000  1.00  0.00     0.282 C 
ENDBRANCH  36  38
ENDBRANCH  35  36
ENDBRANCH   9  35
TORSDOF 9
