REMARK SMILES CC(=O)O[C@H]1CCCC2C1C[C@H]1OC(=O)[C@]3(C)C1[C@]21CCC3(O)OC1
REMARK SMILES IDX 5 1 6 2 7 3 8 4 9 5 10 6 11 7 12 8 13 9 14 10 15 11 16 12
REMARK SMILES IDX 17 13 18 14 19 15 20 16 21 17 22 18 24 19 25 20 4 21 2 22
REMARK SMILES IDX 1 23 3 24 23 25
REMARK H PARENT 23 26
ROOT
ATOM      1  C   UNL     1      -3.107  -0.043   0.000  1.00  0.00     0.180 C 
ATOM      2  C   UNL     1      -3.758  -1.394   0.000  1.00  0.00     0.045 C 
ATOM      3  C   UNL     1      -2.913  -2.634   0.000  1.00  0.00     0.004 C 
ATOM      4  C   UNL     1      -1.417  -2.522   0.000  1.00  0.00     0.005 C 
ATOM      5  C   UNL     1      -0.766  -1.170   0.000  1.00  0.00     0.005 C 
ATOM      6  C   UNL     1      -1.611   0.069   0.000  1.00  0.00     0.037 C 
ATOM      7  C   UNL     1      -0.960   1.421   0.000  1.00  0.00     0.053 C 
ATOM      8  C   UNL     1       0.536   1.533   0.000  1.00  0.00     0.182 C 
ATOM      9  O   UNL     1       1.573   2.617   0.000  1.00  0.00    -0.461 OA
ATOM     10  C   UNL     1       2.924   1.966   0.000  1.00  0.00     0.318 C 
ATOM     11  O   UNL     1       4.245   2.676   0.000  1.00  0.00    -0.251 OA
ATOM     12  C   UNL     1       2.723   0.479   0.000  1.00  0.00     0.126 C 
ATOM     13  C   UNL     1       4.162   0.900   0.000  1.00  0.00     0.030 C 
ATOM     14  C   UNL     1       1.246   0.212   0.000  1.00  0.00     0.061 C 
ATOM     15  C   UNL     1       0.740  -1.200   0.000  1.00  0.00     0.005 C 
ATOM     16  C   UNL     1       1.710  -2.345   0.000  1.00  0.00     0.016 C 
ATOM     17  C   UNL     1       3.186  -2.077   0.000  1.00  0.00     0.067 C 
ATOM     18  C   UNL     1       3.692  -0.665   0.000  1.00  0.00     0.181 C 
ATOM     19  O   UNL     1       2.875  -0.762   0.000  1.00  0.00    -0.348 OA
ATOM     20  C   UNL     1       1.540  -1.004   0.000  1.00  0.00     0.171 C 
ENDROOT
BRANCH   1  21
ATOM     21  O   UNL     1      -3.952   1.197   0.000  1.00  0.00    -0.462 OA
BRANCH  21  22
ATOM     22  C   UNL     1      -5.447   1.085   0.000  1.00  0.00     0.302 C 
ATOM     23  C   UNL     1      -6.292   2.324   0.000  1.00  0.00     0.139 C 
ATOM     24  O   UNL     1      -6.098  -0.267   0.000  1.00  0.00    -0.253 OA
ENDBRANCH  21  22
ENDBRANCH   1  21
BRANCH  18  25
ATOM     25  O   UNL     1       5.168  -0.397   0.000  1.00  0.00    -0.365 OA
ATOM     26  H   UNL     1       0.000   0.000   0.000  1.00  0.00     0.214 HD
ENDBRANCH  18  25
TORSDOF 3
