REMARK SMILES C=C(C)[C@@H]1Cc2cc3ccc(=O)oc3cc2O1
REMARK SMILES IDX 4 1 5 2 6 3 7 4 8 5 14 6 15 7 16 8 17 9 13 10 11 11 12 12
REMARK SMILES IDX 10 13 9 14 2 15 1 16 3 17
REMARK H PARENT
ROOT
ATOM      1  C   UNL     1      -3.155  -0.063   0.000  1.00  0.00     0.203 C 
ATOM      2  C   UNL     1      -2.333   1.191   0.000  1.00  0.00     0.089 C 
ATOM      3  C   UNL     1      -0.886   0.797   0.000  1.00  0.00    -0.001 A 
ATOM      4  C   UNL     1       0.376   1.608   0.000  1.00  0.00     0.019 A 
ATOM      5  C   UNL     1       1.709   0.921   0.000  1.00  0.00     0.018 A 
ATOM      6  C   UNL     1       1.781  -0.577   0.000  1.00  0.00     0.142 A 
ATOM      7  C   UNL     1       0.520  -1.388   0.000  1.00  0.00     0.094 A 
ATOM      8  C   UNL     1      -0.814  -0.702   0.000  1.00  0.00     0.127 A 
ATOM      9  O   UNL     1      -2.216  -1.233   0.000  1.00  0.00    -0.485 OA
ATOM     10  O   UNL     1       3.115  -1.264   0.000  1.00  0.00    -0.423 OA
ATOM     11  C   UNL     1       4.376  -0.452   0.000  1.00  0.00     0.336 A 
ATOM     12  O   UNL     1       5.710  -1.139   0.000  1.00  0.00    -0.246 OA
ATOM     13  C   UNL     1       4.304   1.046   0.000  1.00  0.00     0.094 A 
ATOM     14  C   UNL     1       2.971   1.733   0.000  1.00  0.00     0.019 A 
ENDROOT
BRANCH   1  15
ATOM     15  C   UNL     1      -4.654  -0.135   0.000  1.00  0.00    -0.040 C 
ATOM     16  C   UNL     1      -5.340  -1.469   0.000  1.00  0.00     0.011 C 
ATOM     17  C   UNL     1      -5.465   1.126   0.000  1.00  0.00     0.043 C 
ENDBRANCH   1  15
TORSDOF 1
