REMARK SMILES COn1c(=O)cc2c3ccccc3n3c(=O)ccc1c23
REMARK SMILES IDX 3 1 4 2 5 3 6 4 7 5 8 6 9 7 10 8 11 9 12 10 13 11 14 12
REMARK SMILES IDX 15 13 16 14 17 15 18 16 19 17 20 18 2 19 1 20
REMARK H PARENT
ROOT
ATOM      1  N   UNL     1      -2.677  -0.654   0.000  1.00  0.00    -0.143 N 
ATOM      2  C   UNL     1      -2.155  -2.061   0.000  1.00  0.00     0.284 A 
ATOM      3  O   UNL     1      -3.112  -3.216   0.000  1.00  0.00    -0.266 OA
ATOM      4  C   UNL     1      -0.676  -2.312   0.000  1.00  0.00     0.086 A 
ATOM      5  C   UNL     1       0.280  -1.157   0.000  1.00  0.00     0.016 A 
ATOM      6  C   UNL     1       1.779  -1.095   0.000  1.00  0.00     0.008 A 
ATOM      7  C   UNL     1       2.828  -2.167   0.000  1.00  0.00     0.011 A 
ATOM      8  C   UNL     1       4.281  -1.795   0.000  1.00  0.00     0.001 A 
ATOM      9  C   UNL     1       4.685  -0.351   0.000  1.00  0.00     0.002 A 
ATOM     10  C   UNL     1       3.637   0.722   0.000  1.00  0.00     0.027 A 
ATOM     11  C   UNL     1       2.183   0.350   0.000  1.00  0.00     0.057 A 
ATOM     12  N   UNL     1       0.935   1.181   0.000  1.00  0.00    -0.274 N 
ATOM     13  C   UNL     1       0.424   2.599   0.000  1.00  0.00     0.255 A 
ATOM     14  O   UNL     1       1.497   3.647   0.000  1.00  0.00    -0.269 OA
ATOM     15  C   UNL     1      -1.020   3.003   0.000  1.00  0.00     0.074 A 
ATOM     16  C   UNL     1      -2.092   1.954   0.000  1.00  0.00     0.038 A 
ATOM     17  C   UNL     1      -1.720   0.501   0.000  1.00  0.00     0.109 A 
ATOM     18  C   UNL     1      -0.241   0.250   0.000  1.00  0.00     0.085 A 
ENDROOT
BRANCH   1  19
ATOM     19  O   UNL     1      -4.156  -0.403   0.000  1.00  0.00    -0.413 OA
ATOM     20  C   UNL     1      -4.678   1.003   0.000  1.00  0.00     0.313 C 
ENDBRANCH   1  19
TORSDOF 1
