REMARK SMILES CC1(C)CC[C@]2(C(=O)O[C@@H]3O[C@H](CO)[C@@H](O)[C@H](O)[C@H]3O)CC[C@]3(C)C(=CC[C@@H]4[C@@]5(C)C[C@@H](O)[C@H](O)[C@@](C)(CO)[C@@H]5CC[C@]43C)[C@@H]2[C@@H]1O
REMARK SMILES IDX 7 1 8 2 6 3 2 4 4 5 46 6 5 7 45 8 25 9 21 10 23 11 26 12
REMARK SMILES IDX 22 13 43 14 27 15 42 16 28 17 41 18 29 19 40 20 31 21 36 22
REMARK SMILES IDX 32 23 34 24 1 25 3 26 24 27 44 28 30 29 37 30 47 31 38 33
REMARK SMILES IDX 39 34 33 36 35 38 9 40 10 41 11 42 19 43 12 44 17 45 15 46
REMARK SMILES IDX 20 47 13 49 14 50 18 52 16 54
REMARK H PARENT 47 32 39 35 33 37 35 39 20 48 14 51 18 53 16 55
ROOT
ATOM      1  C   UNL     1      -3.271  -0.934   0.000  1.00  0.00     0.315 C 
ATOM      2  O   UNL     1      -4.625  -1.579   0.000  1.00  0.00    -0.252 OA
ENDROOT
BRANCH   1   3
ATOM      3  C   UNL     1      -2.035  -1.783   0.000  1.00  0.00     0.077 C 
ATOM      4  C   UNL     1      -2.271  -4.774   0.000  1.00  0.00    -0.009 C 
ATOM      5  C   UNL     1      -3.507  -3.925   0.000  1.00  0.00     0.010 C 
ATOM      6  C   UNL     1      -0.917  -4.128   0.000  1.00  0.00     0.128 C 
ATOM      7  C   UNL     1      -3.389  -2.429   0.000  1.00  0.00     0.020 C 
ATOM      8  C   UNL     1      -0.799  -2.633   0.000  1.00  0.00     0.062 C 
ATOM      9  C   UNL     1       0.555  -1.987   0.000  1.00  0.00    -0.061 C 
ATOM     10  C   UNL     1      -1.917  -0.288   0.000  1.00  0.00     0.020 C 
ATOM     11  C   UNL     1       0.672  -0.492   0.000  1.00  0.00    -0.006 C 
ATOM     12  C   UNL     1       1.791  -2.837   0.000  1.00  0.00    -0.026 C 
ATOM     13  C   UNL     1      -0.564   0.358   0.000  1.00  0.00     0.013 C 
ATOM     14  C   UNL     1       2.026   0.154   0.000  1.00  0.00    -0.020 C 
ATOM     15  C   UNL     1       3.145  -2.191   0.000  1.00  0.00     0.032 C 
ATOM     16  C   UNL     1       2.144   1.649   0.000  1.00  0.00     0.008 C 
ATOM     17  C   UNL     1       3.263  -0.696   0.000  1.00  0.00     0.006 C 
ATOM     18  C   UNL     1       3.498   2.295   0.000  1.00  0.00     0.005 C 
ATOM     19  C   UNL     1       4.617  -0.050   0.000  1.00  0.00    -0.023 C 
ATOM     20  C   UNL     1       4.734   1.446   0.000  1.00  0.00     0.006 C 
ATOM     21  C   UNL     1       5.853  -0.899   0.000  1.00  0.00     0.042 C 
ATOM     22  C   UNL     1       6.088   2.091   0.000  1.00  0.00     0.022 C 
ATOM     23  C   UNL     1       7.207  -0.253   0.000  1.00  0.00     0.144 C 
ATOM     24  C   UNL     1       7.324   1.242   0.000  1.00  0.00     0.151 C 
ATOM     25  C   UNL     1      -1.399  -5.995   0.000  1.00  0.00     0.014 C 
ATOM     26  C   UNL     1      -3.322  -5.844   0.000  1.00  0.00     0.014 C 
ATOM     27  C   UNL     1       1.909  -1.341   0.000  1.00  0.00     0.017 C 
ATOM     28  C   UNL     1       0.790   1.004   0.000  1.00  0.00     0.012 C 
ATOM     29  C   UNL     1       4.499  -1.545   0.000  1.00  0.00     0.012 C 
ATOM     30  C   UNL     1       5.217   3.313   0.000  1.00  0.00     0.017 C 
BRANCH   6  31
ATOM     31  O   UNL     1       0.320  -4.978   0.000  1.00  0.00    -0.392 OA
ATOM     32  H   UNL     1       0.000   0.000   0.000  1.00  0.00     0.211 HD
ENDBRANCH   6  31
BRANCH  22  33
ATOM     33  C   UNL     1       7.139   3.161   0.000  1.00  0.00     0.165 C 
BRANCH  33  34
ATOM     34  O   UNL     1       6.738   4.607   0.000  1.00  0.00    -0.396 OA
ATOM     35  H   UNL     1       0.000   0.000   0.000  1.00  0.00     0.210 HD
ENDBRANCH  33  34
ENDBRANCH  22  33
BRANCH  23  36
ATOM     36  O   UNL     1       8.443  -1.103   0.000  1.00  0.00    -0.390 OA
ATOM     37  H   UNL     1       0.000   0.000   0.000  1.00  0.00     0.211 HD
ENDBRANCH  23  36
BRANCH  24  38
ATOM     38  O   UNL     1       8.678   1.888   0.000  1.00  0.00    -0.390 OA
ATOM     39  H   UNL     1       0.000   0.000   0.000  1.00  0.00     0.211 HD
ENDBRANCH  24  38
ENDBRANCH   1   3
BRANCH   1  40
ATOM     40  O   UNL     1      -3.154   0.562   0.000  1.00  0.00    -0.432 OA
BRANCH  40  41
ATOM     41  C   UNL     1      -4.390   1.411   0.000  1.00  0.00     0.342 C 
ATOM     42  O   UNL     1      -4.272   2.907   0.000  1.00  0.00    -0.332 OA
ATOM     43  C   UNL     1      -5.744   0.765   0.000  1.00  0.00     0.214 C 
ATOM     44  C   UNL     1      -5.508   3.756   0.000  1.00  0.00     0.179 C 
ATOM     45  C   UNL     1      -6.980   1.615   0.000  1.00  0.00     0.180 C 
ATOM     46  C   UNL     1      -6.862   3.110   0.000  1.00  0.00     0.177 C 
BRANCH  43  47
ATOM     47  O   UNL     1      -5.862  -0.730   0.000  1.00  0.00    -0.384 OA
ATOM     48  H   UNL     1       0.000   0.000   0.000  1.00  0.00     0.211 HD
ENDBRANCH  43  47
BRANCH  44  49
ATOM     49  C   UNL     1      -5.391   5.252   0.000  1.00  0.00     0.191 C 
BRANCH  49  50
ATOM     50  O   UNL     1      -4.037   5.897   0.000  1.00  0.00    -0.394 OA
ATOM     51  H   UNL     1       0.000   0.000   0.000  1.00  0.00     0.210 HD
ENDBRANCH  49  50
ENDBRANCH  44  49
BRANCH  45  52
ATOM     52  O   UNL     1      -8.334   0.969   0.000  1.00  0.00    -0.387 OA
ATOM     53  H   UNL     1       0.000   0.000   0.000  1.00  0.00     0.211 HD
ENDBRANCH  45  52
BRANCH  46  54
ATOM     54  O   UNL     1      -8.099   3.960   0.000  1.00  0.00    -0.387 OA
ATOM     55  H   UNL     1       0.000   0.000   0.000  1.00  0.00     0.211 HD
ENDBRANCH  46  54
ENDBRANCH  40  41
ENDBRANCH   1  40
TORSDOF 13
