REMARK SMILES O=c1oc2c(O)c(O)cc3c(=O)oc4c(O)c(O)cc1c4c23
REMARK SMILES IDX 1 1 2 2 3 3 4 4 5 5 7 6 9 7 10 8 22 9 21 10 14 11 13 12
REMARK SMILES IDX 11 13 12 14 15 15 17 16 19 17 20 18 6 19 18 21 8 23 16 25
REMARK H PARENT 6 20 18 22 8 24 16 26
ROOT
ATOM      1  O   UNL     1       1.118  -4.023   0.000  1.00  0.00    -0.246 OA
ATOM      2  C   UNL     1       0.496  -2.658   0.000  1.00  0.00     0.344 A 
ATOM      3  O   UNL     1      -0.997  -2.514   0.000  1.00  0.00    -0.418 OA
ATOM      4  C   UNL     1      -1.618  -1.149   0.000  1.00  0.00     0.185 A 
ATOM      5  C   UNL     1      -3.111  -1.004   0.000  1.00  0.00     0.202 A 
ATOM      6  C   UNL     1      -3.733   0.361   0.000  1.00  0.00     0.162 A 
ATOM      7  C   UNL     1      -2.861   1.582   0.000  1.00  0.00     0.066 A 
ATOM      8  C   UNL     1      -1.368   1.437   0.000  1.00  0.00     0.076 A 
ATOM      9  C   UNL     1      -0.747   0.072   0.000  1.00  0.00     0.048 A 
ATOM     10  C   UNL     1       0.747  -0.072   0.000  1.00  0.00     0.048 A 
ATOM     11  C   UNL     1       1.618   1.149   0.000  1.00  0.00     0.185 A 
ATOM     12  O   UNL     1       0.997   2.514   0.000  1.00  0.00    -0.418 OA
ATOM     13  C   UNL     1      -0.496   2.658   0.000  1.00  0.00     0.344 A 
ATOM     14  O   UNL     1      -1.118   4.023   0.000  1.00  0.00    -0.246 OA
ATOM     15  C   UNL     1       3.111   1.004   0.000  1.00  0.00     0.202 A 
ATOM     16  C   UNL     1       3.733  -0.361   0.000  1.00  0.00     0.162 A 
ATOM     17  C   UNL     1       2.861  -1.582   0.000  1.00  0.00     0.066 A 
ATOM     18  C   UNL     1       1.368  -1.437   0.000  1.00  0.00     0.076 A 
ENDROOT
BRANCH   5  19
ATOM     19  O   UNL     1      -3.983  -2.225   0.000  1.00  0.00    -0.502 OA
ATOM     20  H   UNL     1       0.000   0.000   0.000  1.00  0.00     0.293 HD
ENDBRANCH   5  19
BRANCH  16  21
ATOM     21  O   UNL     1       5.226  -0.505   0.000  1.00  0.00    -0.504 OA
ATOM     22  H   UNL     1       0.000   0.000   0.000  1.00  0.00     0.293 HD
ENDBRANCH  16  21
BRANCH   6  23
ATOM     23  O   UNL     1      -5.226   0.505   0.000  1.00  0.00    -0.504 OA
ATOM     24  H   UNL     1       0.000   0.000   0.000  1.00  0.00     0.293 HD
ENDBRANCH   6  23
BRANCH  15  25
ATOM     25  O   UNL     1       3.983   2.225   0.000  1.00  0.00    -0.502 OA
ATOM     26  H   UNL     1       0.000   0.000   0.000  1.00  0.00     0.293 HD
ENDBRANCH  15  25
TORSDOF 4
