REMARK SMILES C=C1C(=O)O[C@H]2[C@H]1[C@H](OC(=O)[C@@]1(C)O[C@H]1C)[C@@H](OC(C)=O)/C(C(=O)OC)=C\CC[C@@]1(C)O[C@H]21
REMARK SMILES IDX 8 1 7 2 2 3 3 4 5 5 6 6 1 7 4 8 33 9 32 10 30 11 31 12 29 13
REMARK SMILES IDX 9 15 10 16 11 17 12 18 14 19 15 20 13 21 16 22 17 23 18 24
REMARK SMILES IDX 19 25 20 26 21 27 22 28 23 29 24 30 25 31 26 32 27 33 28 34
REMARK H PARENT
REMARK Flexibility Score:   20.900
ROOT
ATOM      1  C   UNL     1       0.440  -0.724   0.000  1.00  0.00     0.234 C 
ENDROOT
BRANCH   1   2
ATOM      2  C   UNL     1       1.814  -1.326   0.000  1.00  0.00     0.115 C 
ATOM      3  C   UNL     1       1.665  -2.819   0.000  1.00  0.00     0.041 C 
ATOM      4  C   UNL     1       3.039  -3.421   0.000  1.00  0.00     0.334 C 
ATOM      5  O   UNL     1       4.037  -2.300   0.000  1.00  0.00    -0.455 OA
ATOM      6  C   UNL     1       3.279  -1.006   0.000  1.00  0.00     0.220 C 
ATOM      7  C   UNL     1       0.371  -3.576   0.000  1.00  0.00     0.021 C 
ATOM      8  O   UNL     1       3.359  -4.886   0.000  1.00  0.00    -0.247 OA
BRANCH   6   9
ATOM      9  C   UNL     1       4.276   0.115   0.000  1.00  0.00     0.192 C 
ATOM     10  O   UNL     1       5.643   0.733   0.000  1.00  0.00    -0.362 OA
ATOM     11  C   UNL     1       4.425   1.607   0.000  1.00  0.00     0.096 C 
ATOM     12  C   UNL     1       5.534   2.617   0.000  1.00  0.00     0.045 C 
BRANCH  11  13
ATOM     13  C   UNL     1       3.667   2.902   0.000  1.00  0.00     0.042 CG0
ATOM     14  G   UNL     1       2.294   3.504   0.000  1.00  0.00     0.000 G0
ENDBRANCH  11  13
ENDBRANCH   6   9
ENDBRANCH   1   2
BRANCH   1  15
ATOM     15  O   UNL     1      -0.557  -1.844   0.000  1.00  0.00    -0.455 OA
BRANCH  15  16
ATOM     16  C   UNL     1      -2.026  -1.540   0.000  1.00  0.00     0.341 C 
ATOM     17  O   UNL     1      -2.829  -0.273   0.000  1.00  0.00    -0.249 OA
BRANCH  16  18
ATOM     18  C   UNL     1      -3.024  -2.661   0.000  1.00  0.00     0.188 C 
ATOM     19  O   UNL     1      -4.344  -3.373   0.000  1.00  0.00    -0.354 OA
ATOM     20  C   UNL     1      -4.300  -1.873   0.000  1.00  0.00     0.160 C 
ATOM     21  C   UNL     1      -2.094  -3.838   0.000  1.00  0.00     0.058 C 
ATOM     22  C   UNL     1      -5.012  -0.553   0.000  1.00  0.00     0.042 C 
ENDBRANCH  16  18
ENDBRANCH  15  16
ENDBRANCH   1  15
BRANCH   1  23
ATOM     23  C   UNL     1      -0.318   0.571   0.000  1.00  0.00     0.255 C 
BRANCH  23  24
ATOM     24  O   UNL     1      -1.783   0.251   0.000  1.00  0.00    -0.453 OA
BRANCH  24  25
ATOM     25  C   UNL     1      -2.793   1.360   0.000  1.00  0.00     0.303 C 
ATOM     26  C   UNL     1      -4.258   1.040   0.000  1.00  0.00     0.139 C 
ATOM     27  O   UNL     1      -2.551   2.119   0.000  1.00  0.00    -0.253 OA
ENDBRANCH  24  25
ENDBRANCH  23  24
BRANCH  23  28
ATOM     28  C   UNL     1      -0.169   2.064   0.000  1.00  0.00     0.077 C 
BRANCH  28  29
ATOM     29  C   UNL     1      -1.543   2.666   0.000  1.00  0.00     0.337 C 
ATOM     30  O   UNL     1      -2.280   2.363   0.000  1.00  0.00    -0.246 OA
BRANCH  29  31
ATOM     31  O   UNL     1      -1.708   4.157   0.000  1.00  0.00    -0.466 OA
ATOM     32  C   UNL     1      -3.082   4.759   0.000  1.00  0.00     0.282 C 
ENDBRANCH  29  31
ENDBRANCH  28  29
BRANCH  28  33
ATOM     33  C   UNL     1       0.828   3.184   0.000  1.00  0.00    -0.012 C 
BRANCH  33  34
ATOM     34  C   UNL     1       2.294   3.504   0.000  1.00  0.00     0.031 CG0
ATOM     35  G   UNL     1       3.667   2.902   0.000  1.00  0.00     0.000 G0
ENDBRANCH  33  34
ENDBRANCH  28  33
ENDBRANCH  23  28
ENDBRANCH   1  23
TORSDOF 7
