REMARK SMILES COc1cc(O)c(C(=O)C=Cc2cc(OC)c(OC)c(OC)c2)c(OC)c1
REMARK SMILES IDX 10 1 8 2 9 3 7 4 3 5 4 6 27 7 5 8 24 9 2 10 1 11 6 12 25 14
REMARK SMILES IDX 26 15 11 16 12 17 13 18 23 19 14 20 20 21 17 22 15 23 16 24
REMARK SMILES IDX 21 25 22 26 18 27 19 28
REMARK H PARENT 6 13
ROOT
ATOM      1  C   UNL     1      -0.435   0.804   0.000  1.00  0.00     0.053 C 
ENDROOT
BRANCH   1   2
ATOM      2  C   UNL     1      -1.737   1.550   0.000  1.00  0.00     0.193 C 
ATOM      3  O   UNL     1      -1.741   3.050   0.000  1.00  0.00    -0.289 OA
BRANCH   2   4
ATOM      4  C   UNL     1      -3.034   0.797   0.000  1.00  0.00     0.106 A 
ATOM      5  C   UNL     1      -5.627  -0.711   0.000  1.00  0.00     0.126 A 
ATOM      6  C   UNL     1      -5.631   0.789   0.000  1.00  0.00     0.093 A 
ATOM      7  C   UNL     1      -4.326  -1.457   0.000  1.00  0.00     0.093 A 
ATOM      8  C   UNL     1      -4.335   1.543   0.000  1.00  0.00     0.134 A 
ATOM      9  C   UNL     1      -3.029  -0.703   0.000  1.00  0.00     0.137 A 
BRANCH   5  10
ATOM     10  O   UNL     1      -6.924  -1.465   0.000  1.00  0.00    -0.496 OA
ATOM     11  C   UNL     1      -8.225  -0.719   0.000  1.00  0.00     0.278 C 
ENDBRANCH   5  10
BRANCH   8  12
ATOM     12  O   UNL     1      -4.339   3.043   0.000  1.00  0.00    -0.507 OA
ATOM     13  H   UNL     1       0.000   0.000   0.000  1.00  0.00     0.293 HD
ENDBRANCH   8  12
BRANCH   9  14
ATOM     14  O   UNL     1      -1.728  -1.450   0.000  1.00  0.00    -0.496 OA
ATOM     15  C   UNL     1      -1.723  -2.950   0.000  1.00  0.00     0.278 C 
ENDBRANCH   9  14
ENDBRANCH   2   4
ENDBRANCH   1   2
BRANCH   1  16
ATOM     16  C   UNL     1       0.861   1.558   0.000  1.00  0.00     0.012 C 
BRANCH  16  17
ATOM     17  C   UNL     1       2.163   0.812   0.000  1.00  0.00    -0.018 A 
ATOM     18  C   UNL     1       2.167  -0.688   0.000  1.00  0.00     0.058 A 
ATOM     19  C   UNL     1       3.459   1.566   0.000  1.00  0.00     0.058 A 
ATOM     20  C   UNL     1       3.468  -1.434   0.000  1.00  0.00     0.165 A 
ATOM     21  C   UNL     1       4.761   0.820   0.000  1.00  0.00     0.165 A 
ATOM     22  C   UNL     1       4.765  -0.680   0.000  1.00  0.00     0.203 A 
BRANCH  20  23
ATOM     23  O   UNL     1       3.473  -2.934   0.000  1.00  0.00    -0.493 OA
ATOM     24  C   UNL     1       2.176  -3.688   0.000  1.00  0.00     0.278 C 
ENDBRANCH  20  23
BRANCH  21  25
ATOM     25  O   UNL     1       6.058   1.573   0.000  1.00  0.00    -0.493 OA
ATOM     26  C   UNL     1       6.053   3.074   0.000  1.00  0.00     0.278 C 
ENDBRANCH  21  25
BRANCH  22  27
ATOM     27  O   UNL     1       6.066  -1.427   0.000  1.00  0.00    -0.490 OA
ATOM     28  C   UNL     1       7.363  -0.673   0.000  1.00  0.00     0.278 C 
ENDBRANCH  22  27
ENDBRANCH  16  17
ENDBRANCH   1  16
TORSDOF 10
