REMARK SMILES CC1(C)Oc2ccc3ccc(=O)oc3c2[C@H](O)[C@H]1O
REMARK SMILES IDX 1 1 2 2 3 3 4 4 5 5 6 6 7 7 8 8 9 9 10 10 11 11 12 12 13 13
REMARK SMILES IDX 14 14 15 15 16 16 18 17 19 18 17 20
REMARK H PARENT 19 19 17 21
ROOT
ATOM      1  C   UNL     1      -4.348   0.805   0.000  1.00  0.00     0.059 C 
ATOM      2  C   UNL     1      -3.194  -0.153   0.000  1.00  0.00     0.132 C 
ATOM      3  C   UNL     1      -4.338  -1.123   0.000  1.00  0.00     0.059 C 
ATOM      4  O   UNL     1      -2.437  -1.448   0.000  1.00  0.00    -0.485 OA
ATOM      5  C   UNL     1      -0.937  -1.441   0.000  1.00  0.00     0.129 A 
ATOM      6  C   UNL     1      -0.181  -2.736   0.000  1.00  0.00     0.048 A 
ATOM      7  C   UNL     1       1.319  -2.728   0.000  1.00  0.00     0.016 A 
ATOM      8  C   UNL     1       2.063  -1.425   0.000  1.00  0.00     0.018 A 
ATOM      9  C   UNL     1       3.563  -1.417   0.000  1.00  0.00     0.019 A 
ATOM     10  C   UNL     1       4.306  -0.114   0.000  1.00  0.00     0.094 A 
ATOM     11  C   UNL     1       3.549   1.181   0.000  1.00  0.00     0.336 A 
ATOM     12  O   UNL     1       4.292   2.484   0.000  1.00  0.00    -0.246 OA
ATOM     13  O   UNL     1       2.049   1.173   0.000  1.00  0.00    -0.422 OA
ATOM     14  C   UNL     1       1.306  -0.130   0.000  1.00  0.00     0.148 A 
ATOM     15  C   UNL     1      -0.194  -0.138   0.000  1.00  0.00     0.069 A 
ATOM     16  C   UNL     1      -0.951   1.157   0.000  1.00  0.00     0.184 C 
ATOM     17  C   UNL     1      -2.451   1.150   0.000  1.00  0.00     0.191 C 
ENDROOT
BRANCH  17  18
ATOM     18  O   UNL     1      -3.208   2.445   0.000  1.00  0.00    -0.386 OA
ATOM     19  H   UNL     1       0.000   0.000   0.000  1.00  0.00     0.211 HD
ENDBRANCH  17  18
BRANCH  16  20
ATOM     20  O   UNL     1      -0.208   2.460   0.000  1.00  0.00    -0.385 OA
ATOM     21  H   UNL     1       0.000   0.000   0.000  1.00  0.00     0.211 HD
ENDBRANCH  16  20
TORSDOF 2
