REMARK SMILES CC(=O)O[C@H]1C(=O)c2c(C)ccc(C)c2C[C@@H]1C(C)(C)OC(C)=O
REMARK SMILES IDX 5 1 6 2 7 3 8 4 9 5 10 6 11 7 12 8 13 9 14 10 15 11 16 12
REMARK SMILES IDX 17 13 4 14 2 15 1 16 3 17 18 18 19 19 20 20 21 21 22 22
REMARK SMILES IDX 23 23 24 24
REMARK H PARENT
ROOT
ATOM      1  C   UNL     1      -0.361  -0.611   0.000  1.00  0.00     0.255 C 
ATOM      2  C   UNL     1       1.020  -1.196   0.000  1.00  0.00     0.204 C 
ATOM      3  O   UNL     1       1.204  -2.685   0.000  1.00  0.00    -0.290 OA
ATOM      4  C   UNL     1       2.218  -0.293   0.000  1.00  0.00     0.028 A 
ATOM      5  C   UNL     1       3.599  -0.878   0.000  1.00  0.00    -0.040 A 
ATOM      6  C   UNL     1       3.783  -2.367   0.000  1.00  0.00     0.045 C 
ATOM      7  C   UNL     1       4.796   0.025   0.000  1.00  0.00     0.004 A 
ATOM      8  C   UNL     1       4.612   1.514   0.000  1.00  0.00     0.004 A 
ATOM      9  C   UNL     1       3.231   2.099   0.000  1.00  0.00    -0.047 A 
ATOM     10  C   UNL     1       3.048   3.588   0.000  1.00  0.00     0.044 C 
ATOM     11  C   UNL     1       2.034   1.196   0.000  1.00  0.00    -0.033 A 
ATOM     12  C   UNL     1       0.653   1.781   0.000  1.00  0.00     0.048 C 
ATOM     13  C   UNL     1      -0.545   0.877   0.000  1.00  0.00     0.086 C 
ENDROOT
BRANCH   1  14
ATOM     14  O   UNL     1      -1.558  -1.515   0.000  1.00  0.00    -0.454 OA
BRANCH  14  15
ATOM     15  C   UNL     1      -1.375  -3.003   0.000  1.00  0.00     0.303 C 
ATOM     16  C   UNL     1      -2.572  -3.907   0.000  1.00  0.00     0.139 C 
ATOM     17  O   UNL     1       0.007  -3.589   0.000  1.00  0.00    -0.253 OA
ENDBRANCH  14  15
ENDBRANCH   1  14
BRANCH  13  18
ATOM     18  C   UNL     1      -1.926   1.463   0.000  1.00  0.00     0.114 C 
ATOM     19  C   UNL     1      -2.511   0.082   0.000  1.00  0.00     0.057 C 
ATOM     20  C   UNL     1      -1.340   2.844   0.000  1.00  0.00     0.057 C 
BRANCH  18  21
ATOM     21  O   UNL     1      -3.307   2.048   0.000  1.00  0.00    -0.459 OA
BRANCH  21  22
ATOM     22  C   UNL     1      -4.504   1.144   0.000  1.00  0.00     0.303 C 
ATOM     23  C   UNL     1      -5.885   1.730   0.000  1.00  0.00     0.139 C 
ATOM     24  O   UNL     1      -4.321  -0.344   0.000  1.00  0.00    -0.253 OA
ENDBRANCH  21  22
ENDBRANCH  18  21
ENDBRANCH  13  18
TORSDOF 5
