REMARK SMILES C=CC[C@@]12C=C(O)C(=O)[C@@](OC)(C1O)[C@@H](c1ccc3c(c1)OCO3)[C@@H]2C
REMARK SMILES IDX 4 1 5 2 6 3 8 4 9 5 10 6 13 7 15 8 25 9 26 10 3 11 2 12 1 13
REMARK SMILES IDX 14 14 7 16 11 18 12 19 16 20 17 21 21 22 18 23 20 24 19 25
REMARK SMILES IDX 22 26 24 27 23 28
REMARK H PARENT 14 15 7 17
ROOT
ATOM      1  C   UNL     1       2.461   0.847   0.000  1.00  0.00     0.028 C 
ATOM      2  C   UNL     1       3.742   0.066   0.000  1.00  0.00     0.033 C 
ATOM      3  C   UNL     1       3.706  -1.433   0.000  1.00  0.00     0.158 C 
ATOM      4  C   UNL     1       2.390  -2.152   0.000  1.00  0.00     0.231 C 
ATOM      5  O   UNL     1       2.355  -3.652   0.000  1.00  0.00    -0.287 OA
ATOM      6  C   UNL     1       1.109  -1.372   0.000  1.00  0.00     0.167 C 
ATOM      7  C   UNL     1       1.144   0.128   0.000  1.00  0.00     0.166 C 
ATOM      8  C   UNL     1       0.221  -0.088   0.000  1.00  0.00     0.066 C 
ATOM      9  C   UNL     1       1.001   1.193   0.000  1.00  0.00     0.010 C 
ATOM     10  C   UNL     1       0.423   2.577   0.000  1.00  0.00     0.009 C 
ENDROOT
BRANCH   1  11
ATOM     11  C   UNL     1       2.496   2.346   0.000  1.00  0.00     0.041 C 
BRANCH  11  12
ATOM     12  C   UNL     1       3.812   3.066   0.000  1.00  0.00    -0.034 C 
ATOM     13  C   UNL     1       3.848   4.565   0.000  1.00  0.00     0.004 C 
ENDBRANCH  11  12
ENDBRANCH   1  11
BRANCH   7  14
ATOM     14  O   UNL     1      -0.137   0.908   0.000  1.00  0.00    -0.389 OA
ATOM     15  H   UNL     1       0.000   0.000   0.000  1.00  0.00     0.211 HD
ENDBRANCH   7  14
BRANCH   3  16
ATOM     16  O   UNL     1       4.987  -2.213   0.000  1.00  0.00    -0.505 OA
ATOM     17  H   UNL     1       0.000   0.000   0.000  1.00  0.00     0.293 HD
ENDBRANCH   3  16
BRANCH   6  18
ATOM     18  O   UNL     1      -0.207  -2.091   0.000  1.00  0.00    -0.366 OA
ATOM     19  C   UNL     1      -0.243  -3.591   0.000  1.00  0.00     0.196 C 
ENDBRANCH   6  18
BRANCH   8  20
ATOM     20  C   UNL     1      -1.274  -0.210   0.000  1.00  0.00    -0.037 A 
ATOM     21  C   UNL     1      -1.916  -1.565   0.000  1.00  0.00     0.008 A 
ATOM     22  C   UNL     1      -2.127   1.024   0.000  1.00  0.00     0.054 A 
ATOM     23  C   UNL     1      -3.411  -1.687   0.000  1.00  0.00     0.051 A 
ATOM     24  C   UNL     1      -3.622   0.903   0.000  1.00  0.00     0.166 A 
ATOM     25  C   UNL     1      -4.264  -0.453   0.000  1.00  0.00     0.165 A 
ATOM     26  O   UNL     1      -4.713   1.932   0.000  1.00  0.00    -0.454 OA
ATOM     27  O   UNL     1      -5.752  -0.261   0.000  1.00  0.00    -0.454 OA
ATOM     28  C   UNL     1      -6.029   1.213   0.000  1.00  0.00     0.468 C 
ENDBRANCH   8  20
TORSDOF 6
