REMARK SMILES COC(=O)C[C@H]1C(C)(C)C(=O)C=C2O[C@@]3(C)C(=C[C@H](OC(C)=O)[C@]4(C)C3=CC(=O)O[C@H]4c3ccoc3)[C@@]21C
REMARK SMILES IDX 6 1 7 2 8 3 9 4 10 5 11 6 12 7 13 8 14 9 15 10 16 11 17 12
REMARK SMILES IDX 18 13 19 14 24 15 25 16 26 17 27 18 28 19 29 20 30 21 31 22
REMARK SMILES IDX 37 23 38 24 5 25 3 26 4 27 2 28 1 29 20 30 21 31 22 32 23 33
REMARK SMILES IDX 32 34 36 35 33 36 35 37 34 38
REMARK H PARENT
ROOT
ATOM      1  C   UNL     1      -3.241  -0.114   0.000  1.00  0.00     0.031 C 
ATOM      2  C   UNL     1      -4.608  -0.731   0.000  1.00  0.00     0.032 C 
ATOM      3  C   UNL     1      -4.979   0.722   0.000  1.00  0.00     0.020 C 
ATOM      4  C   UNL     1      -6.104  -0.845   0.000  1.00  0.00     0.020 C 
ATOM      5  C   UNL     1      -4.757  -2.224   0.000  1.00  0.00     0.164 C 
ATOM      6  O   UNL     1      -6.124  -2.842   0.000  1.00  0.00    -0.294 OA
ATOM      7  C   UNL     1      -3.538  -3.099   0.000  1.00  0.00     0.090 C 
ATOM      8  C   UNL     1      -2.171  -2.481   0.000  1.00  0.00     0.112 C 
ATOM      9  O   UNL     1      -0.798  -3.083   0.000  1.00  0.00    -0.482 OA
ATOM     10  C   UNL     1       0.200  -1.963   0.000  1.00  0.00     0.150 C 
ATOM     11  C   UNL     1       0.818  -3.330   0.000  1.00  0.00     0.067 C 
ATOM     12  C   UNL     1      -0.558  -0.668   0.000  1.00  0.00    -0.010 C 
ATOM     13  C   UNL     1       0.185   0.635   0.000  1.00  0.00     0.023 C 
ATOM     14  C   UNL     1       1.685   0.643   0.000  1.00  0.00     0.214 C 
ATOM     15  C   UNL     1       2.442  -0.651   0.000  1.00  0.00     0.075 C 
ATOM     16  C   UNL     1       3.185   0.652   0.000  1.00  0.00     0.025 C 
ATOM     17  C   UNL     1       1.700  -1.955   0.000  1.00  0.00    -0.002 C 
ATOM     18  C   UNL     1       2.457  -3.249   0.000  1.00  0.00     0.098 C 
ATOM     19  C   UNL     1       3.957  -3.241   0.000  1.00  0.00     0.331 C 
ATOM     20  O   UNL     1       4.714  -4.536   0.000  1.00  0.00    -0.247 OA
ATOM     21  O   UNL     1       4.700  -1.938   0.000  1.00  0.00    -0.453 OA
ATOM     22  C   UNL     1       3.942  -0.643   0.000  1.00  0.00     0.224 C 
ATOM     23  C   UNL     1      -2.023  -0.988   0.000  1.00  0.00     0.055 C 
ATOM     24  C   UNL     1      -1.720   0.481   0.000  1.00  0.00     0.025 C 
ENDROOT
BRANCH   1  25
ATOM     25  C   UNL     1      -3.093   1.379   0.000  1.00  0.00     0.128 C 
BRANCH  25  26
ATOM     26  C   UNL     1      -4.312   2.254   0.000  1.00  0.00     0.305 C 
ATOM     27  O   UNL     1      -5.678   1.636   0.000  1.00  0.00    -0.252 OA
BRANCH  26  28
ATOM     28  O   UNL     1      -4.163   3.747   0.000  1.00  0.00    -0.469 OA
ATOM     29  C   UNL     1      -5.382   4.621   0.000  1.00  0.00     0.282 C 
ENDBRANCH  26  28
ENDBRANCH  25  26
ENDBRANCH   1  25
BRANCH  14  30
ATOM     30  O   UNL     1       2.428   1.947   0.000  1.00  0.00    -0.457 OA
BRANCH  30  31
ATOM     31  C   UNL     1       1.670   3.241   0.000  1.00  0.00     0.303 C 
ATOM     32  C   UNL     1       2.413   4.545   0.000  1.00  0.00     0.139 C 
ATOM     33  O   UNL     1       0.170   3.233   0.000  1.00  0.00    -0.253 OA
ENDBRANCH  30  31
ENDBRANCH  14  30
BRANCH  22  34
ATOM     34  C   UNL     1       4.685   0.660   0.000  1.00  0.00     0.032 A 
ATOM     35  C   UNL     1       4.067   2.027   0.000  1.00  0.00     0.202 A 
ATOM     36  C   UNL     1       6.176   0.826   0.000  1.00  0.00     0.049 A 
ATOM     37  O   UNL     1       5.176   3.037   0.000  1.00  0.00    -0.472 OA
ATOM     38  C   UNL     1       6.479   2.295   0.000  1.00  0.00     0.195 A 
ENDBRANCH  22  34
TORSDOF 6
