REMARK SMILES CC(=O)O[C@H]1CC[C@]2(C)[C@H]3CC[C@]4(C)C(=CC[C@@]5(C)CCC(C)(C)C[C@H]54)[C@]3(C)CC[C@H]2C1(C)C
REMARK SMILES IDX 4 1 2 2 1 3 3 4 5 5 6 6 32 7 7 8 31 9 8 10 30 11 10 12 29 13
REMARK SMILES IDX 11 14 27 15 12 16 15 17 13 18 16 19 26 20 17 21 25 22 18 23
REMARK SMILES IDX 22 24 20 25 21 26 33 27 34 28 9 29 28 30 14 31 19 32 23 33
REMARK SMILES IDX 24 34
REMARK H PARENT
ROOT
ATOM      1  O   UNL     1      -6.665   0.129   0.000  1.00  0.00    -0.462 OA
ENDROOT
BRANCH   1   2
ATOM      2  C   UNL     1      -7.434   1.416   0.000  1.00  0.00     0.302 C 
ATOM      3  C   UNL     1      -8.934   1.393   0.000  1.00  0.00     0.139 C 
ATOM      4  O   UNL     1      -6.704   2.726   0.000  1.00  0.00    -0.253 OA
ENDBRANCH   1   2
BRANCH   1   5
ATOM      5  C   UNL     1      -5.165   0.151   0.000  1.00  0.00     0.182 C 
ATOM      6  C   UNL     1      -4.434   1.461   0.000  1.00  0.00     0.046 C 
ATOM      7  C   UNL     1      -4.395  -1.136   0.000  1.00  0.00     0.005 C 
ATOM      8  C   UNL     1      -2.934   1.484   0.000  1.00  0.00     0.011 C 
ATOM      9  C   UNL     1      -2.895  -1.114   0.000  1.00  0.00     0.005 C 
ATOM     10  C   UNL     1      -2.165   0.197   0.000  1.00  0.00    -0.025 C 
ATOM     11  C   UNL     1      -2.126  -2.401   0.000  1.00  0.00     0.006 C 
ATOM     12  C   UNL     1      -0.665   0.219   0.000  1.00  0.00     0.005 C 
ATOM     13  C   UNL     1      -0.626  -2.379   0.000  1.00  0.00     0.012 C 
ATOM     14  C   UNL     1       0.065   1.529   0.000  1.00  0.00     0.006 C 
ATOM     15  C   UNL     1       0.104  -1.068   0.000  1.00  0.00    -0.008 C 
ATOM     16  C   UNL     1       1.565   1.552   0.000  1.00  0.00     0.012 C 
ATOM     17  C   UNL     1       1.604  -1.046   0.000  1.00  0.00    -0.062 C 
ATOM     18  C   UNL     1       2.334   0.265   0.000  1.00  0.00    -0.008 C 
ATOM     19  C   UNL     1       2.374  -2.333   0.000  1.00  0.00    -0.026 C 
ATOM     20  C   UNL     1       3.834   0.287   0.000  1.00  0.00     0.006 C 
ATOM     21  C   UNL     1       3.874  -2.311   0.000  1.00  0.00     0.034 C 
ATOM     22  C   UNL     1       4.565   1.597   0.000  1.00  0.00     0.011 C 
ATOM     23  C   UNL     1       4.604  -1.000   0.000  1.00  0.00    -0.025 C 
ATOM     24  C   UNL     1       6.064   1.620   0.000  1.00  0.00    -0.035 C 
ATOM     25  C   UNL     1       6.104  -0.978   0.000  1.00  0.00     0.008 C 
ATOM     26  C   UNL     1       6.834   0.333   0.000  1.00  0.00     0.007 C 
ATOM     27  C   UNL     1      -4.112  -2.610   0.000  1.00  0.00     0.015 C 
ATOM     28  C   UNL     1      -5.797  -1.671   0.000  1.00  0.00     0.015 C 
ATOM     29  C   UNL     1      -1.435   1.507   0.000  1.00  0.00     0.012 C 
ATOM     30  C   UNL     1       0.874  -2.356   0.000  1.00  0.00     0.016 C 
ATOM     31  C   UNL     1       3.065   1.575   0.000  1.00  0.00     0.016 C 
ATOM     32  C   UNL     1       5.373  -2.288   0.000  1.00  0.00     0.012 C 
ATOM     33  C   UNL     1       5.782   3.093   0.000  1.00  0.00     0.011 C 
ATOM     34  C   UNL     1       7.466   2.154   0.000  1.00  0.00     0.011 C 
ENDBRANCH   1   5
TORSDOF 2
