REMARK SMILES COc1ccc(CCC(=O)c2c(OC)cc(OC(C)=O)cc2OC(C)=O)cc1
REMARK SMILES IDX 8 1 7 2 6 3 3 4 4 5 28 6 5 7 27 8 2 9 1 10 9 11 10 12 11 13
REMARK SMILES IDX 12 14 22 15 15 16 21 17 16 18 13 19 14 20 23 21 24 22 25 23
REMARK SMILES IDX 26 24 17 25 18 26 19 27 20 28
REMARK H PARENT
ROOT
ATOM      1  C   UNL     1      -1.283   0.674   0.000  1.00  0.00     0.086 C 
ENDROOT
BRANCH   1   2
ATOM      2  C   UNL     1      -2.564   1.455   0.000  1.00  0.00     0.044 C 
BRANCH   2   3
ATOM      3  C   UNL     1      -3.881   0.737   0.000  1.00  0.00    -0.047 A 
ATOM      4  C   UNL     1      -6.514  -0.700   0.000  1.00  0.00     0.118 A 
ATOM      5  C   UNL     1      -6.478   0.799   0.000  1.00  0.00     0.046 A 
ATOM      6  C   UNL     1      -5.233  -1.481   0.000  1.00  0.00     0.046 A 
ATOM      7  C   UNL     1      -5.161   1.518   0.000  1.00  0.00     0.007 A 
ATOM      8  C   UNL     1      -3.917  -0.763   0.000  1.00  0.00     0.007 A 
BRANCH   4   9
ATOM      9  O   UNL     1      -7.831  -1.418   0.000  1.00  0.00    -0.497 OA
ATOM     10  C   UNL     1      -9.111  -0.637   0.000  1.00  0.00     0.278 C 
ENDBRANCH   4   9
ENDBRANCH   2   3
ENDBRANCH   1   2
BRANCH   1  11
ATOM     11  C   UNL     1       0.034   1.393   0.000  1.00  0.00     0.170 C 
ATOM     12  O   UNL     1       0.070   2.892   0.000  1.00  0.00    -0.294 OA
BRANCH  11  13
ATOM     13  C   UNL     1       1.314   0.611   0.000  1.00  0.00     0.103 A 
ATOM     14  C   UNL     1       1.278  -0.888   0.000  1.00  0.00     0.137 A 
ATOM     15  C   UNL     1       2.631   1.330   0.000  1.00  0.00     0.149 A 
ATOM     16  C   UNL     1       2.558  -1.669   0.000  1.00  0.00     0.094 A 
ATOM     17  C   UNL     1       3.912   0.549   0.000  1.00  0.00     0.095 A 
ATOM     18  C   UNL     1       3.875  -0.951   0.000  1.00  0.00     0.138 A 
BRANCH  14  19
ATOM     19  O   UNL     1      -0.039  -1.607   0.000  1.00  0.00    -0.496 OA
ATOM     20  C   UNL     1      -0.075  -3.106   0.000  1.00  0.00     0.278 C 
ENDBRANCH  14  19
BRANCH  15  21
ATOM     21  O   UNL     1       2.667   2.829   0.000  1.00  0.00    -0.426 OA
BRANCH  21  22
ATOM     22  C   UNL     1       3.984   3.548   0.000  1.00  0.00     0.308 C 
ATOM     23  C   UNL     1       4.020   5.047   0.000  1.00  0.00     0.139 C 
ATOM     24  O   UNL     1       5.264   2.767   0.000  1.00  0.00    -0.252 OA
ENDBRANCH  21  22
ENDBRANCH  15  21
BRANCH  18  25
ATOM     25  O   UNL     1       5.156  -1.732   0.000  1.00  0.00    -0.426 OA
BRANCH  25  26
ATOM     26  C   UNL     1       5.120  -3.232   0.000  1.00  0.00     0.308 C 
ATOM     27  C   UNL     1       6.400  -4.013   0.000  1.00  0.00     0.139 C 
ATOM     28  O   UNL     1       3.803  -3.950   0.000  1.00  0.00    -0.252 OA
ENDBRANCH  25  26
ENDBRANCH  18  25
ENDBRANCH  11  13
ENDBRANCH   1  11
TORSDOF 10
