REMARK SMILES COc1ccc2oc3cccc(O)c3c(=O)c2c1
REMARK SMILES IDX 3 1 4 2 5 3 6 4 7 5 8 6 9 7 10 8 11 9 12 10 14 11 15 12
REMARK SMILES IDX 16 13 17 14 18 15 2 16 1 17 13 18
REMARK H PARENT 13 19
ROOT
ATOM      1  C   UNL     1      -3.393  -0.273   0.000  1.00  0.00     0.119 A 
ATOM      2  C   UNL     1      -3.385   1.227   0.000  1.00  0.00     0.050 A 
ATOM      3  C   UNL     1      -2.082   1.970   0.000  1.00  0.00     0.052 A 
ATOM      4  C   UNL     1      -0.787   1.213   0.000  1.00  0.00     0.138 A 
ATOM      5  O   UNL     1       0.516   1.956   0.000  1.00  0.00    -0.456 OA
ATOM      6  C   UNL     1       1.811   1.199   0.000  1.00  0.00     0.142 A 
ATOM      7  C   UNL     1       3.114   1.942   0.000  1.00  0.00     0.048 A 
ATOM      8  C   UNL     1       4.409   1.185   0.000  1.00  0.00     0.008 A 
ATOM      9  C   UNL     1       4.401  -0.315   0.000  1.00  0.00     0.047 A 
ATOM     10  C   UNL     1       3.098  -1.058   0.000  1.00  0.00     0.130 A 
ATOM     11  C   UNL     1       1.803  -0.301   0.000  1.00  0.00     0.107 A 
ATOM     12  C   UNL     1       0.500  -1.044   0.000  1.00  0.00     0.204 A 
ATOM     13  O   UNL     1       0.491  -2.544   0.000  1.00  0.00    -0.288 OA
ATOM     14  C   UNL     1      -0.795  -0.287   0.000  1.00  0.00     0.069 A 
ATOM     15  C   UNL     1      -2.099  -1.030   0.000  1.00  0.00     0.062 A 
ENDROOT
BRANCH   1  16
ATOM     16  O   UNL     1      -4.697  -1.016   0.000  1.00  0.00    -0.497 OA
ATOM     17  C   UNL     1      -5.992  -0.259   0.000  1.00  0.00     0.278 C 
ENDBRANCH   1  16
BRANCH  10  18
ATOM     18  O   UNL     1       3.090  -2.558   0.000  1.00  0.00    -0.507 OA
ATOM     19  H   UNL     1       0.000   0.000   0.000  1.00  0.00     0.293 HD
ENDBRANCH  10  18
TORSDOF 2
