REMARK SMILES C=CC[C@]12C[C@@H](OC)C(=O)C(OC)=C1O[C@@H](c1ccc3c(c1)OCO3)[C@@H]2C
REMARK SMILES IDX 4 1 5 2 6 3 9 4 10 5 11 6 14 7 15 8 16 9 26 10 27 11 3 12
REMARK SMILES IDX 2 13 1 14 7 15 8 16 12 17 13 18 17 19 18 20 22 21 19 22
REMARK SMILES IDX 21 23 20 24 23 25 25 26 24 27
REMARK H PARENT
ROOT
ATOM      1  C   UNL     1       1.397   0.545   0.000  1.00  0.00     0.045 C 
ATOM      2  C   UNL     1       2.760   1.170   0.000  1.00  0.00     0.056 C 
ATOM      3  C   UNL     1       3.984   0.302   0.000  1.00  0.00     0.194 C 
ATOM      4  C   UNL     1       3.844  -1.191   0.000  1.00  0.00     0.229 C 
ATOM      5  O   UNL     1       5.068  -2.059   0.000  1.00  0.00    -0.288 OA
ATOM      6  C   UNL     1       2.481  -1.817   0.000  1.00  0.00     0.203 C 
ATOM      7  C   UNL     1       1.257  -0.949   0.000  1.00  0.00     0.150 C 
ATOM      8  O   UNL     1      -0.206  -1.277   0.000  1.00  0.00    -0.485 OA
ATOM      9  C   UNL     1      -0.971   0.013   0.000  1.00  0.00     0.207 C 
ATOM     10  C   UNL     1       0.020   1.139   0.000  1.00  0.00     0.046 C 
ATOM     11  C   UNL     1      -0.308   2.603   0.000  1.00  0.00     0.013 C 
ENDROOT
BRANCH   1  12
ATOM     12  C   UNL     1       1.380   2.045   0.000  1.00  0.00     0.042 C 
BRANCH  12  13
ATOM     13  C   UNL     1       2.671   2.809   0.000  1.00  0.00    -0.034 C 
ATOM     14  C   UNL     1       2.654   4.309   0.000  1.00  0.00     0.004 C 
ENDBRANCH  12  13
ENDBRANCH   1  12
BRANCH   3  15
ATOM     15  O   UNL     1       5.347   0.928   0.000  1.00  0.00    -0.373 OA
ATOM     16  C   UNL     1       6.571   0.060   0.000  1.00  0.00     0.196 C 
ENDBRANCH   3  15
BRANCH   6  17
ATOM     17  O   UNL     1       2.341  -3.310   0.000  1.00  0.00    -0.490 OA
ATOM     18  C   UNL     1       3.564  -4.178   0.000  1.00  0.00     0.278 C 
ENDBRANCH   6  17
BRANCH   9  19
ATOM     19  C   UNL     1      -2.464   0.153   0.000  1.00  0.00    -0.003 A 
ATOM     20  C   UNL     1      -3.090   1.516   0.000  1.00  0.00     0.011 A 
ATOM     21  C   UNL     1      -3.332  -1.071   0.000  1.00  0.00     0.058 A 
ATOM     22  C   UNL     1      -4.583   1.656   0.000  1.00  0.00     0.051 A 
ATOM     23  C   UNL     1      -4.826  -0.931   0.000  1.00  0.00     0.166 A 
ATOM     24  C   UNL     1      -5.451   0.432   0.000  1.00  0.00     0.165 A 
ATOM     25  O   UNL     1      -5.929  -1.947   0.000  1.00  0.00    -0.454 OA
ATOM     26  O   UNL     1      -6.941   0.259   0.000  1.00  0.00    -0.454 OA
ATOM     27  C   UNL     1      -7.236  -1.212   0.000  1.00  0.00     0.468 C 
ENDBRANCH   9  19
TORSDOF 5
