REMARK SMILES COc1c(O)cc2c(c1OC)O[C@H]1c3cc(O)c(OC)c(OC)c3OC[C@@H]21
REMARK SMILES IDX 3 1 4 2 6 3 7 4 8 5 9 6 12 7 13 8 14 9 15 10 16 11 18 12
REMARK SMILES IDX 21 13 24 14 25 15 26 16 27 17 2 18 1 19 5 20 10 22 11 23
REMARK SMILES IDX 17 24 22 26 23 27 19 28 20 29
REMARK H PARENT 5 21 17 25
ROOT
ATOM      1  C   UNL     1       4.818  -0.269   0.000  1.00  0.00     0.207 A 
ATOM      2  C   UNL     1       4.455  -1.724   0.000  1.00  0.00     0.162 A 
ATOM      3  C   UNL     1       3.013  -2.137   0.000  1.00  0.00     0.058 A 
ATOM      4  C   UNL     1       1.934  -1.095   0.000  1.00  0.00     0.013 A 
ATOM      5  C   UNL     1       2.298   0.361   0.000  1.00  0.00     0.170 A 
ATOM      6  C   UNL     1       3.740   0.774   0.000  1.00  0.00     0.207 A 
ATOM      7  O   UNL     1       1.026   1.156   0.000  1.00  0.00    -0.480 OA
ATOM      8  C   UNL     1      -0.124   0.192   0.000  1.00  0.00     0.219 C 
ATOM      9  C   UNL     1      -1.609   0.402   0.000  1.00  0.00     0.043 A 
ATOM     10  C   UNL     1      -2.170   1.793   0.000  1.00  0.00     0.062 A 
ATOM     11  C   UNL     1      -3.656   2.002   0.000  1.00  0.00     0.162 A 
ATOM     12  C   UNL     1      -4.580   0.820   0.000  1.00  0.00     0.207 A 
ATOM     13  C   UNL     1      -4.018  -0.571   0.000  1.00  0.00     0.207 A 
ATOM     14  C   UNL     1      -2.533  -0.780   0.000  1.00  0.00     0.172 A 
ATOM     15  O   UNL     1      -1.971  -2.171   0.000  1.00  0.00    -0.488 OA
ATOM     16  C   UNL     1      -0.486  -2.380   0.000  1.00  0.00     0.242 C 
ATOM     17  C   UNL     1       0.438  -1.198   0.000  1.00  0.00     0.107 C 
ENDROOT
BRANCH   1  18
ATOM     18  O   UNL     1       6.260   0.144   0.000  1.00  0.00    -0.490 OA
ATOM     19  C   UNL     1       6.624   1.600   0.000  1.00  0.00     0.278 C 
ENDBRANCH   1  18
BRANCH   2  20
ATOM     20  O   UNL     1       5.534  -2.766   0.000  1.00  0.00    -0.504 OA
ATOM     21  H   UNL     1       0.000   0.000   0.000  1.00  0.00     0.293 HD
ENDBRANCH   2  20
BRANCH   6  22
ATOM     22  O   UNL     1       4.103   2.229   0.000  1.00  0.00    -0.490 OA
ATOM     23  C   UNL     1       5.545   2.642   0.000  1.00  0.00     0.278 C 
ENDBRANCH   6  22
BRANCH  11  24
ATOM     24  O   UNL     1      -4.217   3.393   0.000  1.00  0.00    -0.504 OA
ATOM     25  H   UNL     1       0.000   0.000   0.000  1.00  0.00     0.293 HD
ENDBRANCH  11  24
BRANCH  13  26
ATOM     26  O   UNL     1      -4.942  -1.752   0.000  1.00  0.00    -0.490 OA
ATOM     27  C   UNL     1      -6.427  -1.543   0.000  1.00  0.00     0.278 C 
ENDBRANCH  13  26
BRANCH  12  28
ATOM     28  O   UNL     1      -6.065   1.030   0.000  1.00  0.00    -0.490 OA
ATOM     29  C   UNL     1      -6.989  -0.152   0.000  1.00  0.00     0.278 C 
ENDBRANCH  12  28
TORSDOF 6
