REMARK SMILES COc1cc(-c2cc(=O)c3c(OC)c(OC)c(OC)cc3o2)cc2c1OCO2
REMARK SMILES IDX 6 1 7 2 8 3 9 4 10 5 11 6 14 7 17 8 20 9 21 10 22 11 5 12
REMARK SMILES IDX 3 13 4 14 25 15 24 16 26 17 23 18 28 19 27 20 2 21 1 22
REMARK SMILES IDX 12 23 13 24 18 25 19 26 15 27 16 28
REMARK H PARENT
ROOT
ATOM      1  C   UNL     1      -0.913  -0.347   0.000  1.00  0.00     0.138 A 
ATOM      2  C   UNL     1      -0.304  -1.718   0.000  1.00  0.00     0.100 A 
ATOM      3  C   UNL     1       1.188  -1.876   0.000  1.00  0.00     0.197 A 
ATOM      4  O   UNL     1       1.796  -3.247   0.000  1.00  0.00    -0.289 OA
ATOM      5  C   UNL     1       2.070  -0.663   0.000  1.00  0.00     0.111 A 
ATOM      6  C   UNL     1       3.562  -0.821   0.000  1.00  0.00     0.179 A 
ATOM      7  C   UNL     1       4.444   0.392   0.000  1.00  0.00     0.204 A 
ATOM      8  C   UNL     1       3.835   1.763   0.000  1.00  0.00     0.168 A 
ATOM      9  C   UNL     1       2.344   1.921   0.000  1.00  0.00     0.098 A 
ATOM     10  C   UNL     1       1.461   0.708   0.000  1.00  0.00     0.146 A 
ATOM     11  O   UNL     1      -0.031   0.866   0.000  1.00  0.00    -0.456 OA
ENDROOT
BRANCH   1  12
ATOM     12  C   UNL     1      -2.405  -0.189   0.000  1.00  0.00     0.025 A 
ATOM     13  C   UNL     1      -4.506   1.339   0.000  1.00  0.00     0.165 A 
ATOM     14  C   UNL     1      -3.014   1.182   0.000  1.00  0.00     0.062 A 
ATOM     15  C   UNL     1      -5.388   0.127   0.000  1.00  0.00     0.207 A 
ATOM     16  C   UNL     1      -4.779  -1.244   0.000  1.00  0.00     0.170 A 
ATOM     17  O   UNL     1      -6.880  -0.029   0.000  1.00  0.00    -0.450 OA
ATOM     18  C   UNL     1      -3.288  -1.402   0.000  1.00  0.00     0.063 A 
ATOM     19  O   UNL     1      -5.895  -2.247   0.000  1.00  0.00    -0.453 OA
ATOM     20  C   UNL     1      -7.193  -1.496   0.000  1.00  0.00     0.468 C 
BRANCH  13  21
ATOM     21  O   UNL     1      -5.115   2.710   0.000  1.00  0.00    -0.493 OA
ATOM     22  C   UNL     1      -4.232   3.923   0.000  1.00  0.00     0.278 C 
ENDBRANCH  13  21
ENDBRANCH   1  12
BRANCH   6  23
ATOM     23  O   UNL     1       4.171  -2.192   0.000  1.00  0.00    -0.492 OA
ATOM     24  C   UNL     1       5.662  -2.350   0.000  1.00  0.00     0.278 C 
ENDBRANCH   6  23
BRANCH   8  25
ATOM     25  O   UNL     1       4.718   2.975   0.000  1.00  0.00    -0.493 OA
ATOM     26  C   UNL     1       6.210   2.818   0.000  1.00  0.00     0.278 C 
ENDBRANCH   8  25
BRANCH   7  27
ATOM     27  O   UNL     1       5.936   0.234   0.000  1.00  0.00    -0.490 OA
ATOM     28  C   UNL     1       6.545  -1.137   0.000  1.00  0.00     0.278 C 
ENDBRANCH   7  27
TORSDOF 5
