REMARK SMILES C/C=C/c1ccc(O[C@H](C)[C@@H](O)c2cc(OC)c(OC)c(OC)c2)c(OC)c1
REMARK SMILES IDX 8 1 7 2 4 3 5 4 28 5 6 6 25 7 3 8 2 9 1 10 26 11 27 12 9 13
REMARK SMILES IDX 10 14 11 15 12 16 13 18 14 19 24 20 15 21 21 22 18 23 16 24
REMARK SMILES IDX 17 25 22 26 23 27 19 28 20 29
REMARK H PARENT 12 17
ROOT
ATOM      1  O   UNL     1       1.525   2.370   0.000  1.00  0.00    -0.484 OA
ENDROOT
BRANCH   1   2
ATOM      2  C   UNL     1       2.557   1.282   0.000  1.00  0.00     0.161 A 
ATOM      3  C   UNL     1       4.622  -0.895   0.000  1.00  0.00    -0.022 A 
ATOM      4  C   UNL     1       3.163  -1.245   0.000  1.00  0.00     0.012 A 
ATOM      5  C   UNL     1       5.048   0.543   0.000  1.00  0.00     0.058 A 
ATOM      6  C   UNL     1       2.131  -0.157   0.000  1.00  0.00     0.051 A 
ATOM      7  C   UNL     1       4.016   1.631   0.000  1.00  0.00     0.161 A 
BRANCH   3   8
ATOM      8  C   UNL     1       5.654  -1.983   0.000  1.00  0.00     0.003 C 
BRANCH   8   9
ATOM      9  C   UNL     1       5.228  -3.421   0.000  1.00  0.00    -0.030 C 
ATOM     10  C   UNL     1       6.261  -4.510   0.000  1.00  0.00     0.035 C 
ENDBRANCH   8   9
ENDBRANCH   3   8
BRANCH   7  11
ATOM     11  O   UNL     1       4.442   3.070   0.000  1.00  0.00    -0.493 OA
ATOM     12  C   UNL     1       5.901   3.420   0.000  1.00  0.00     0.278 C 
ENDBRANCH   7  11
ENDBRANCH   1   2
BRANCH   1  13
ATOM     13  C   UNL     1       0.066   2.020   0.000  1.00  0.00     0.203 C 
ATOM     14  C   UNL     1      -0.966   3.108   0.000  1.00  0.00     0.056 C 
BRANCH  13  15
ATOM     15  C   UNL     1      -0.360   0.582   0.000  1.00  0.00     0.185 C 
BRANCH  15  16
ATOM     16  O   UNL     1       0.672  -0.507   0.000  1.00  0.00    -0.385 OA
ATOM     17  H   UNL     1       0.000   0.000   0.000  1.00  0.00     0.211 HD
ENDBRANCH  15  16
BRANCH  15  18
ATOM     18  C   UNL     1      -1.819   0.232   0.000  1.00  0.00    -0.008 A 
ATOM     19  C   UNL     1      -2.851   1.320   0.000  1.00  0.00     0.057 A 
ATOM     20  C   UNL     1      -2.245  -1.206   0.000  1.00  0.00     0.057 A 
ATOM     21  C   UNL     1      -4.309   0.970   0.000  1.00  0.00     0.165 A 
ATOM     22  C   UNL     1      -3.703  -1.556   0.000  1.00  0.00     0.165 A 
ATOM     23  C   UNL     1      -4.736  -0.468   0.000  1.00  0.00     0.203 A 
BRANCH  21  24
ATOM     24  O   UNL     1      -5.342   2.058   0.000  1.00  0.00    -0.493 OA
ATOM     25  C   UNL     1      -4.916   3.496   0.000  1.00  0.00     0.278 C 
ENDBRANCH  21  24
BRANCH  22  26
ATOM     26  O   UNL     1      -4.130  -2.995   0.000  1.00  0.00    -0.493 OA
ATOM     27  C   UNL     1      -3.097  -4.083   0.000  1.00  0.00     0.278 C 
ENDBRANCH  22  26
BRANCH  23  28
ATOM     28  O   UNL     1      -6.194  -0.818   0.000  1.00  0.00    -0.490 OA
ATOM     29  C   UNL     1      -6.621  -2.256   0.000  1.00  0.00     0.278 C 
ENDBRANCH  23  28
ENDBRANCH  15  18
ENDBRANCH  13  15
ENDBRANCH   1  13
TORSDOF 11
