REMARK SMILES CC[C@H](C)/C=C/C1=CC2=CC(=O)[C@@]3(C)OC(=O)C(C(=O)[C@@H](C)[C@@H](C)OC(=O)[C@@H](OC)c4ccccc4)=C3C2=CO1
REMARK SMILES IDX 19 1 20 2 18 3 7 4 8 5 40 6 9 7 39 8 10 9 38 10 11 11 37 12
REMARK SMILES IDX 13 13 15 14 16 15 12 16 14 17 17 18 6 19 5 20 3 21 4 22 2 23
REMARK SMILES IDX 1 24 21 25 22 26 23 27 24 28 25 29 26 30 27 31 28 32 29 33
REMARK SMILES IDX 30 34 31 35 32 36 36 37 33 38 35 39 34 40
REMARK H PARENT
ROOT
ATOM      1  C   UNL     1       0.021   1.267   0.000  1.00  0.00     0.177 C 
ATOM      2  O   UNL     1      -0.467  -0.151   0.000  1.00  0.00    -0.293 OA
ENDROOT
BRANCH   1   3
ATOM      3  C   UNL     1      -0.963   2.399   0.000  1.00  0.00     0.111 C 
ATOM      4  C   UNL     1      -5.164  -1.327   0.000  1.00  0.00     0.126 C 
ATOM      5  C   UNL     1      -5.751   0.054   0.000  1.00  0.00     0.056 C 
ATOM      6  O   UNL     1      -3.675  -1.509   0.000  1.00  0.00    -0.464 OA
ATOM      7  C   UNL     1      -4.848   1.252   0.000  1.00  0.00    -0.007 C 
ATOM      8  C   UNL     1      -2.773  -0.311   0.000  1.00  0.00     0.204 C 
ATOM      9  C   UNL     1      -5.435   2.632   0.000  1.00  0.00     0.061 C 
ATOM     10  C   UNL     1      -3.360   1.069   0.000  1.00  0.00     0.026 C 
ATOM     11  C   UNL     1      -4.532   3.831   0.000  1.00  0.00     0.204 C 
ATOM     12  C   UNL     1      -2.457   2.268   0.000  1.00  0.00     0.032 C 
ATOM     13  C   UNL     1      -3.044   3.648   0.000  1.00  0.00     0.198 C 
ATOM     14  O   UNL     1      -1.912   4.633   0.000  1.00  0.00    -0.442 OA
ATOM     15  C   UNL     1      -0.626   3.861   0.000  1.00  0.00     0.343 C 
ATOM     16  O   UNL     1      -5.119   5.211   0.000  1.00  0.00    -0.290 OA
ATOM     17  C   UNL     1      -3.483   5.083   0.000  1.00  0.00     0.071 C 
ATOM     18  O   UNL     1       0.755   4.447   0.000  1.00  0.00    -0.246 OA
BRANCH   4  19
ATOM     19  C   UNL     1      -6.067  -2.525   0.000  1.00  0.00     0.043 C 
BRANCH  19  20
ATOM     20  C   UNL     1      -5.480  -3.906   0.000  1.00  0.00    -0.020 C 
BRANCH  20  21
ATOM     21  C   UNL     1      -6.383  -5.104   0.000  1.00  0.00     0.008 C 
ATOM     22  C   UNL     1      -5.796  -6.484   0.000  1.00  0.00     0.012 C 
BRANCH  21  23
ATOM     23  C   UNL     1      -7.872  -4.921   0.000  1.00  0.00     0.004 C 
ATOM     24  C   UNL     1      -8.774  -6.120   0.000  1.00  0.00     0.004 C 
ENDBRANCH  21  23
ENDBRANCH  20  21
ENDBRANCH  19  20
ENDBRANCH   4  19
ENDBRANCH   1   3
BRANCH   1  25
ATOM     25  C   UNL     1       1.494   1.554   0.000  1.00  0.00     0.099 C 
ATOM     26  C   UNL     1       1.982   2.972   0.000  1.00  0.00     0.020 C 
BRANCH  25  27
ATOM     27  C   UNL     1       2.478   0.422   0.000  1.00  0.00     0.184 C 
ATOM     28  C   UNL     1       1.990  -0.997   0.000  1.00  0.00     0.054 C 
BRANCH  27  29
ATOM     29  O   UNL     1       3.951   0.708   0.000  1.00  0.00    -0.460 OA
BRANCH  29  30
ATOM     30  C   UNL     1       4.935  -0.423   0.000  1.00  0.00     0.340 C 
ATOM     31  O   UNL     1       4.447  -1.842   0.000  1.00  0.00    -0.249 OA
BRANCH  30  32
ATOM     32  C   UNL     1       6.407  -0.137   0.000  1.00  0.00     0.257 C 
BRANCH  32  33
ATOM     33  O   UNL     1       6.895   1.282   0.000  1.00  0.00    -0.365 OA
ATOM     34  C   UNL     1       8.368   1.568   0.000  1.00  0.00     0.196 C 
ENDBRANCH  32  33
BRANCH  32  35
ATOM     35  C   UNL     1       7.392  -1.269   0.000  1.00  0.00    -0.008 A 
ATOM     36  C   UNL     1       6.904  -2.687   0.000  1.00  0.00     0.007 A 
ATOM     37  C   UNL     1       8.864  -0.982   0.000  1.00  0.00     0.007 A 
ATOM     38  C   UNL     1       7.888  -3.819   0.000  1.00  0.00     0.000 A 
ATOM     39  C   UNL     1       9.848  -2.114   0.000  1.00  0.00     0.000 A 
ATOM     40  C   UNL     1       9.361  -3.532   0.000  1.00  0.00     0.000 A 
ENDBRANCH  32  35
ENDBRANCH  30  32
ENDBRANCH  29  30
ENDBRANCH  27  29
ENDBRANCH  25  27
ENDBRANCH   1  25
TORSDOF 12
