REMARK SMILES CC1(C)C=Cc2cc([C@@H]3CC(=O)c4ccc5c(c4O3)C=CC(C)(C)O5)ccc2O1
REMARK SMILES IDX 9 1 10 2 11 3 12 4 13 5 14 6 15 7 16 8 25 9 22 10 23 11
REMARK SMILES IDX 24 12 21 13 20 14 17 15 18 16 19 17 8 18 2 19 4 20 29 21
REMARK SMILES IDX 5 22 28 23 6 24 27 25 7 26 26 27 1 28 3 29
REMARK H PARENT
ROOT
ATOM      1  C   UNL     1      -0.287  -0.832   0.000  1.00  0.00     0.211 C 
ATOM      2  C   UNL     1      -0.155  -2.326   0.000  1.00  0.00     0.131 C 
ATOM      3  C   UNL     1       1.204  -2.959   0.000  1.00  0.00     0.170 C 
ATOM      4  O   UNL     1       1.336  -4.454   0.000  1.00  0.00    -0.294 OA
ATOM      5  C   UNL     1       2.433  -2.098   0.000  1.00  0.00     0.061 A 
ATOM      6  C   UNL     1       3.792  -2.732   0.000  1.00  0.00     0.019 A 
ATOM      7  C   UNL     1       5.021  -1.871   0.000  1.00  0.00     0.048 A 
ATOM      8  C   UNL     1       4.890  -0.377   0.000  1.00  0.00     0.131 A 
ATOM      9  O   UNL     1       6.118   0.484   0.000  1.00  0.00    -0.483 OA
ATOM     10  C   UNL     1       5.987   1.978   0.000  1.00  0.00     0.122 C 
ATOM     11  C   UNL     1       6.374   3.428   0.000  1.00  0.00     0.061 C 
ATOM     12  C   UNL     1       7.481   1.848   0.000  1.00  0.00     0.061 C 
ATOM     13  C   UNL     1       4.627   2.612   0.000  1.00  0.00     0.021 C 
ATOM     14  C   UNL     1       3.398   1.751   0.000  1.00  0.00     0.015 C 
ATOM     15  C   UNL     1       3.530   0.257   0.000  1.00  0.00     0.059 A 
ATOM     16  C   UNL     1       2.301  -0.604   0.000  1.00  0.00     0.142 A 
ATOM     17  O   UNL     1       0.942   0.029   0.000  1.00  0.00    -0.484 OA
ENDROOT
BRANCH   1  18
ATOM     18  C   UNL     1      -1.646  -0.198   0.000  1.00  0.00    -0.006 A 
ATOM     19  C   UNL     1      -6.954   0.841   0.000  1.00  0.00     0.122 C 
ATOM     20  C   UNL     1      -6.822  -0.653   0.000  1.00  0.00     0.021 C 
ATOM     21  O   UNL     1      -5.726   1.702   0.000  1.00  0.00    -0.483 OA
ATOM     22  C   UNL     1      -5.463  -1.287   0.000  1.00  0.00     0.012 C 
ATOM     23  C   UNL     1      -4.366   1.068   0.000  1.00  0.00     0.127 A 
ATOM     24  C   UNL     1      -4.234  -0.426   0.000  1.00  0.00     0.017 A 
ATOM     25  C   UNL     1      -3.137   1.929   0.000  1.00  0.00     0.047 A 
ATOM     26  C   UNL     1      -2.875  -1.059   0.000  1.00  0.00     0.019 A 
ATOM     27  C   UNL     1      -1.778   1.296   0.000  1.00  0.00     0.011 A 
ATOM     28  C   UNL     1      -7.588   2.200   0.000  1.00  0.00     0.061 C 
ATOM     29  C   UNL     1      -8.403   0.452   0.000  1.00  0.00     0.061 C 
ENDBRANCH   1  18
TORSDOF 1
