REMARK SMILES CC(C)=CCCC(C)=CCc1cc(C(=O)O)cc(CC=C(C)C)c1O
REMARK SMILES IDX 9 1 7 2 8 3 6 4 5 5 4 6 2 7 1 8 3 9 10 10 11 11 12 12 24 13
REMARK SMILES IDX 13 14 18 15 17 16 25 17 14 19 15 20 16 21 19 23 20 24 21 25
REMARK SMILES IDX 22 26 23 27
REMARK H PARENT 25 18 16 22
ROOT
ATOM      1  C   UNL     1      -1.594   1.806   0.000  1.00  0.00    -0.023 C 
ENDROOT
BRANCH   1   2
ATOM      2  C   UNL     1      -3.085   1.637   0.000  1.00  0.00    -0.077 C 
ATOM      3  C   UNL     1      -3.977   2.843   0.000  1.00  0.00     0.039 C 
BRANCH   2   4
ATOM      4  C   UNL     1      -3.683   0.261   0.000  1.00  0.00     0.034 C 
BRANCH   4   5
ATOM      5  C   UNL     1      -5.173   0.092   0.000  1.00  0.00     0.032 C 
BRANCH   5   6
ATOM      6  C   UNL     1      -5.772  -1.284   0.000  1.00  0.00    -0.028 C 
BRANCH   6   7
ATOM      7  C   UNL     1      -7.262  -1.453   0.000  1.00  0.00    -0.080 C 
ATOM      8  C   UNL     1      -7.861  -2.828   0.000  1.00  0.00     0.039 C 
ATOM      9  C   UNL     1      -8.154  -0.247   0.000  1.00  0.00     0.039 C 
ENDBRANCH   6   7
ENDBRANCH   5   6
ENDBRANCH   4   5
ENDBRANCH   2   4
ENDBRANCH   1   2
BRANCH   1  10
ATOM     10  C   UNL     1      -0.702   0.600   0.000  1.00  0.00     0.066 C 
BRANCH  10  11
ATOM     11  C   UNL     1       0.788   0.769   0.000  1.00  0.00    -0.001 A 
ATOM     12  C   UNL     1       1.387   2.145   0.000  1.00  0.00     0.023 A 
ATOM     13  C   UNL     1       1.680  -0.437   0.000  1.00  0.00     0.122 A 
ATOM     14  C   UNL     1       2.877   2.314   0.000  1.00  0.00     0.060 A 
ATOM     15  C   UNL     1       3.171  -0.267   0.000  1.00  0.00    -0.001 A 
ATOM     16  C   UNL     1       3.769   1.108   0.000  1.00  0.00     0.023 A 
BRANCH  13  17
ATOM     17  O   UNL     1       1.082  -1.812   0.000  1.00  0.00    -0.507 OA
ATOM     18  H   UNL     1       0.000   0.000   0.000  1.00  0.00     0.293 HD
ENDBRANCH  13  17
BRANCH  14  19
ATOM     19  C   UNL     1       3.476   3.690   0.000  1.00  0.00     0.335 C 
ATOM     20  O   UNL     1       2.584   4.896   0.000  1.00  0.00    -0.246 OA
BRANCH  19  21
ATOM     21  O   UNL     1       4.966   3.859   0.000  1.00  0.00    -0.478 OA
ATOM     22  H   UNL     1       0.000   0.000   0.000  1.00  0.00     0.297 HD
ENDBRANCH  19  21
ENDBRANCH  14  19
BRANCH  15  23
ATOM     23  C   UNL     1       4.062  -1.473   0.000  1.00  0.00     0.066 C 
BRANCH  23  24
ATOM     24  C   UNL     1       3.464  -2.849   0.000  1.00  0.00    -0.023 C 
BRANCH  24  25
ATOM     25  C   UNL     1       4.356  -4.055   0.000  1.00  0.00    -0.080 C 
ATOM     26  C   UNL     1       3.757  -5.430   0.000  1.00  0.00     0.039 C 
ATOM     27  C   UNL     1       5.846  -3.885   0.000  1.00  0.00     0.039 C 
ENDBRANCH  24  25
ENDBRANCH  23  24
ENDBRANCH  15  23
ENDBRANCH  10  11
ENDBRANCH   1  10
TORSDOF 13
