REMARK SMILES CC(=O)Oc1ccc2c(c1)O[C@@H]1c3ccc(OC(C)=O)c(OC(C)=O)c3CO[C@H]1C2=O
REMARK SMILES IDX 5 1 6 2 7 3 8 4 30 5 31 6 29 7 28 8 27 9 26 10 21 11 16 12
REMARK SMILES IDX 15 13 14 14 13 15 12 16 11 17 9 18 10 19 4 20 2 21 1 22 3 23
REMARK SMILES IDX 22 24 23 25 24 26 25 27 17 28 18 29 19 30 20 31
REMARK H PARENT
ROOT
ATOM      1  C   UNL     1      -5.395  -0.898   0.000  1.00  0.00     0.134 A 
ATOM      2  C   UNL     1      -5.771   0.554   0.000  1.00  0.00     0.048 A 
ATOM      3  C   UNL     1      -4.702   1.606   0.000  1.00  0.00     0.019 A 
ATOM      4  C   UNL     1      -3.256   1.206   0.000  1.00  0.00     0.063 A 
ATOM      5  C   UNL     1      -2.187   2.258   0.000  1.00  0.00     0.199 C 
ATOM      6  O   UNL     1      -2.563   3.710   0.000  1.00  0.00    -0.291 OA
ATOM      7  C   UNL     1      -0.741   1.857   0.000  1.00  0.00     0.235 C 
ATOM      8  O   UNL     1       0.329   2.909   0.000  1.00  0.00    -0.361 OA
ATOM      9  C   UNL     1       1.774   2.509   0.000  1.00  0.00     0.201 C 
ATOM     10  C   UNL     1       2.150   1.057   0.000  1.00  0.00     0.031 A 
ATOM     11  C   UNL     1       3.596   0.657   0.000  1.00  0.00     0.179 A 
ATOM     12  C   UNL     1       3.972  -0.795   0.000  1.00  0.00     0.173 A 
ATOM     13  C   UNL     1       2.903  -1.847   0.000  1.00  0.00     0.052 A 
ATOM     14  C   UNL     1       1.457  -1.447   0.000  1.00  0.00     0.012 A 
ATOM     15  C   UNL     1       1.081   0.005   0.000  1.00  0.00     0.005 A 
ATOM     16  C   UNL     1      -0.365   0.405   0.000  1.00  0.00     0.241 C 
ATOM     17  O   UNL     1      -1.434  -0.646   0.000  1.00  0.00    -0.482 OA
ATOM     18  C   UNL     1      -2.880  -0.246   0.000  1.00  0.00     0.135 A 
ATOM     19  C   UNL     1      -3.949  -1.298   0.000  1.00  0.00     0.094 A 
ENDROOT
BRANCH   1  20
ATOM     20  O   UNL     1      -6.464  -1.949   0.000  1.00  0.00    -0.427 OA
BRANCH  20  21
ATOM     21  C   UNL     1      -7.910  -1.549   0.000  1.00  0.00     0.308 C 
ATOM     22  C   UNL     1      -8.979  -2.601   0.000  1.00  0.00     0.139 C 
ATOM     23  O   UNL     1      -8.286  -0.097   0.000  1.00  0.00    -0.252 OA
ENDBRANCH  20  21
ENDBRANCH   1  20
BRANCH  11  24
ATOM     24  O   UNL     1       4.665   1.708   0.000  1.00  0.00    -0.422 OA
BRANCH  24  25
ATOM     25  C   UNL     1       6.111   1.308   0.000  1.00  0.00     0.308 C 
ATOM     26  C   UNL     1       7.181   2.360   0.000  1.00  0.00     0.139 C 
ATOM     27  O   UNL     1       6.487  -0.144   0.000  1.00  0.00    -0.252 OA
ENDBRANCH  24  25
ENDBRANCH  11  24
BRANCH  12  28
ATOM     28  O   UNL     1       5.418  -1.196   0.000  1.00  0.00    -0.423 OA
BRANCH  28  29
ATOM     29  C   UNL     1       5.794  -2.648   0.000  1.00  0.00     0.308 C 
ATOM     30  C   UNL     1       7.239  -3.048   0.000  1.00  0.00     0.139 C 
ATOM     31  O   UNL     1       4.724  -3.700   0.000  1.00  0.00    -0.252 OA
ENDBRANCH  28  29
ENDBRANCH  12  28
TORSDOF 6
