REMARK SMILES CC(C)CC(=O)Oc1c2ccoc2cc2oc(=O)ccc12
REMARK SMILES IDX 5 1 6 2 4 3 2 4 1 5 3 6 7 7 8 8 9 9 21 10 10 11 13 12 15 13
REMARK SMILES IDX 20 14 11 15 12 16 14 17 16 18 19 19 17 20 18 21
REMARK H PARENT
ROOT
ATOM      1  C   UNL     1      -2.322  -0.787   0.000  1.00  0.00     0.311 C 
ATOM      2  O   UNL     1      -2.689   0.668   0.000  1.00  0.00    -0.252 OA
ENDROOT
BRANCH   1   3
ATOM      3  C   UNL     1      -3.399  -1.831   0.000  1.00  0.00     0.126 C 
BRANCH   3   4
ATOM      4  C   UNL     1      -4.842  -1.422   0.000  1.00  0.00    -0.006 C 
ATOM      5  C   UNL     1      -5.918  -2.467   0.000  1.00  0.00     0.008 C 
ATOM      6  C   UNL     1      -5.208   0.033   0.000  1.00  0.00     0.008 C 
ENDBRANCH   3   4
ENDBRANCH   1   3
BRANCH   1   7
ATOM      7  O   UNL     1      -0.879  -1.196   0.000  1.00  0.00    -0.425 OA
BRANCH   7   8
ATOM      8  C   UNL     1       0.197  -0.151   0.000  1.00  0.00     0.152 A 
ATOM      9  C   UNL     1      -0.170   1.303   0.000  1.00  0.00     0.064 A 
ATOM     10  C   UNL     1       1.640  -0.561   0.000  1.00  0.00     0.061 A 
ATOM     11  C   UNL     1      -1.496   2.004   0.000  1.00  0.00     0.054 A 
ATOM     12  C   UNL     1       0.906   2.348   0.000  1.00  0.00     0.141 A 
ATOM     13  C   UNL     1       2.716   0.484   0.000  1.00  0.00     0.145 A 
ATOM     14  C   UNL     1       2.006  -2.016   0.000  1.00  0.00     0.023 A 
ATOM     15  C   UNL     1      -1.240   3.482   0.000  1.00  0.00     0.196 A 
ATOM     16  O   UNL     1       0.245   3.694   0.000  1.00  0.00    -0.464 OA
ATOM     17  C   UNL     1       2.349   1.938   0.000  1.00  0.00     0.095 A 
ATOM     18  O   UNL     1       4.159   0.074   0.000  1.00  0.00    -0.422 OA
ATOM     19  C   UNL     1       3.450  -2.425   0.000  1.00  0.00     0.095 A 
ATOM     20  C   UNL     1       4.526  -1.381   0.000  1.00  0.00     0.336 A 
ATOM     21  O   UNL     1       5.969  -1.790   0.000  1.00  0.00    -0.246 OA
ENDBRANCH   7   8
ENDBRANCH   1   7
TORSDOF 4
