REMARK SMILES C=C1CC[C@H]2O[C@]2(C)CC[C@@H]2[C@@H]1CC2(C)C
REMARK SMILES IDX 10 1 11 2 12 3 13 4 14 5 15 6 16 7 2 8 1 9 3 10 9 12 7 13
REMARK SMILES IDX 6 14 5 15 8 16 4 17
REMARK H PARENT
REMARK Flexibility Score:   16.900
ROOT
ATOM      1  C   UNL     1      -0.096  -1.694   0.000  1.00  0.00     0.008 C 
ENDROOT
BRANCH   1   2
ATOM      2  C   UNL     1      -1.211  -0.691   0.000  1.00  0.00     0.002 C 
ATOM      3  C   UNL     1      -1.421   0.795   0.000  1.00  0.00     0.018 C 
ATOM      4  C   UNL     1      -2.906   0.585   0.000  1.00  0.00     0.015 C 
ATOM      5  C   UNL     1      -2.696  -0.900   0.000  1.00  0.00    -0.031 C 
ATOM      6  C   UNL     1      -2.486  -2.386   0.000  1.00  0.00     0.011 C 
ATOM      7  C   UNL     1      -4.181  -1.110   0.000  1.00  0.00     0.011 C 
BRANCH   3   8
ATOM      8  C   UNL     1      -0.627   2.067   0.000  1.00  0.00    -0.074 C 
ATOM      9  C   UNL     1      -1.551   3.249   0.000  1.00  0.00     0.008 C 
BRANCH   8  10
ATOM     10  C   UNL     1       0.799   2.532   0.000  1.00  0.00     0.033 CG0
ATOM     11  G   UNL     1       2.191   1.971   0.000  1.00  0.00     0.000 G0
ENDBRANCH   8  10
ENDBRANCH   3   8
ENDBRANCH   1   2
BRANCH   1  12
ATOM     12  C   UNL     1       1.404  -1.745   0.000  1.00  0.00     0.038 C 
BRANCH  12  13
ATOM     13  C   UNL     1       2.585  -0.820   0.000  1.00  0.00     0.092 C 
ATOM     14  O   UNL     1       4.011  -0.356   0.000  1.00  0.00    -0.366 OA
ATOM     15  C   UNL     1       2.896   0.647   0.000  1.00  0.00     0.151 C 
ATOM     16  C   UNL     1       3.290  -2.144   0.000  1.00  0.00     0.045 C 
BRANCH  15  17
ATOM     17  C   UNL     1       2.191   1.971   0.000  1.00  0.00     0.039 CG0
ATOM     18  G   UNL     1       0.799   2.532   0.000  1.00  0.00     0.000 G0
ENDBRANCH  15  17
ENDBRANCH  12  13
ENDBRANCH   1  12
TORSDOF 0
