REMARK SMILES CC(C)=CCc1c(O)c2c(c3c1OC(C)(C)C=C3)O[C@H](c1ccc(O)cc1)CC2=O
REMARK SMILES IDX 6 1 7 2 9 3 10 4 19 5 20 6 28 7 29 8 30 9 11 10 12 11 13 12
REMARK SMILES IDX 14 13 15 14 16 15 17 16 18 17 5 18 4 19 2 20 1 21 3 22 8 23
REMARK SMILES IDX 21 25 22 26 27 27 23 28 26 29 24 30 25 31
REMARK H PARENT 8 24 25 32
ROOT
ATOM      1  C   UNL     1       2.625  -0.290   0.000  1.00  0.00     0.041 A 
ATOM      2  C   UNL     1       1.669  -1.446   0.000  1.00  0.00     0.137 A 
ATOM      3  C   UNL     1       0.190  -1.197   0.000  1.00  0.00     0.103 A 
ATOM      4  C   UNL     1      -0.333   0.208   0.000  1.00  0.00     0.145 A 
ATOM      5  O   UNL     1      -1.812   0.458   0.000  1.00  0.00    -0.484 OA
ATOM      6  C   UNL     1      -2.768  -0.699   0.000  1.00  0.00     0.211 C 
ATOM      7  C   UNL     1      -2.244  -2.104   0.000  1.00  0.00     0.131 C 
ATOM      8  C   UNL     1      -0.765  -2.353   0.000  1.00  0.00     0.174 C 
ATOM      9  O   UNL     1      -0.242  -3.759   0.000  1.00  0.00    -0.294 OA
ATOM     10  C   UNL     1       0.622   1.365   0.000  1.00  0.00     0.060 A 
ATOM     11  C   UNL     1       2.101   1.115   0.000  1.00  0.00     0.138 A 
ATOM     12  O   UNL     1       3.057   2.272   0.000  1.00  0.00    -0.483 OA
ATOM     13  C   UNL     1       2.533   3.677   0.000  1.00  0.00     0.122 C 
ATOM     14  C   UNL     1       2.522   5.177   0.000  1.00  0.00     0.061 C 
ATOM     15  C   UNL     1       4.008   3.949   0.000  1.00  0.00     0.061 C 
ATOM     16  C   UNL     1       1.054   3.927   0.000  1.00  0.00     0.021 C 
ATOM     17  C   UNL     1       0.099   2.770   0.000  1.00  0.00     0.015 C 
ENDROOT
BRANCH   1  18
ATOM     18  C   UNL     1       4.104  -0.540   0.000  1.00  0.00     0.070 C 
BRANCH  18  19
ATOM     19  C   UNL     1       4.628  -1.945   0.000  1.00  0.00    -0.023 C 
BRANCH  19  20
ATOM     20  C   UNL     1       6.107  -2.195   0.000  1.00  0.00    -0.080 C 
ATOM     21  C   UNL     1       6.630  -3.600   0.000  1.00  0.00     0.039 C 
ATOM     22  C   UNL     1       7.062  -1.038   0.000  1.00  0.00     0.039 C 
ENDBRANCH  19  20
ENDBRANCH  18  19
ENDBRANCH   1  18
BRANCH   2  23
ATOM     23  O   UNL     1       2.193  -2.852   0.000  1.00  0.00    -0.507 OA
ATOM     24  H   UNL     1       0.000   0.000   0.000  1.00  0.00     0.293 HD
ENDBRANCH   2  23
BRANCH   6  25
ATOM     25  C   UNL     1      -4.247  -0.449   0.000  1.00  0.00    -0.007 A 
ATOM     26  C   UNL     1      -4.771   0.957   0.000  1.00  0.00     0.011 A 
ATOM     27  C   UNL     1      -5.203  -1.605   0.000  1.00  0.00     0.011 A 
ATOM     28  C   UNL     1      -6.250   1.206   0.000  1.00  0.00     0.046 A 
ATOM     29  C   UNL     1      -6.682  -1.356   0.000  1.00  0.00     0.046 A 
ATOM     30  C   UNL     1      -7.205   0.050   0.000  1.00  0.00     0.115 A 
BRANCH  30  31
ATOM     31  O   UNL     1      -8.684   0.299   0.000  1.00  0.00    -0.508 OA
ATOM     32  H   UNL     1       0.000   0.000   0.000  1.00  0.00     0.293 HD
ENDBRANCH  30  31
ENDBRANCH   6  25
TORSDOF 6
