REMARK SMILES CC(=O)O[C@@H]1[C@@H](O)[C@@H](O)[C@H](Oc2cc3c(=O)oc4c(O)c(O)cc5c(=O)oc(c2O)c3c45)O[C@H]1C
REMARK SMILES IDX 5 1 6 2 8 3 10 4 33 5 34 6 35 7 4 8 2 9 1 10 3 11 7 12 9 14
REMARK SMILES IDX 11 16 12 17 13 18 29 19 14 20 28 21 31 22 15 23 27 24 32 25
REMARK SMILES IDX 17 26 25 27 18 28 24 29 19 30 23 31 21 32 16 33 26 34 30 35
REMARK SMILES IDX 20 37 22 39
REMARK H PARENT 7 13 9 15 30 36 20 38 22 40
ROOT
ATOM      1  C   UNL     1      -5.205  -0.826   0.000  1.00  0.00     0.236 C 
ATOM      2  C   UNL     1      -5.440   0.655   0.000  1.00  0.00     0.193 C 
ATOM      3  C   UNL     1      -4.275   1.600   0.000  1.00  0.00     0.215 C 
ATOM      4  C   UNL     1      -2.874   1.063   0.000  1.00  0.00     0.339 C 
ATOM      5  O   UNL     1      -2.639  -0.419   0.000  1.00  0.00    -0.334 OA
ATOM      6  C   UNL     1      -3.805  -1.363   0.000  1.00  0.00     0.163 C 
ATOM      7  C   UNL     1      -3.570  -2.845   0.000  1.00  0.00     0.043 C 
ENDROOT
BRANCH   1   8
ATOM      8  O   UNL     1      -6.371  -1.770   0.000  1.00  0.00    -0.457 OA
BRANCH   8   9
ATOM      9  C   UNL     1      -7.771  -1.233   0.000  1.00  0.00     0.303 C 
ATOM     10  C   UNL     1      -8.937  -2.178   0.000  1.00  0.00     0.139 C 
ATOM     11  O   UNL     1      -8.006   0.248   0.000  1.00  0.00    -0.253 OA
ENDBRANCH   8   9
ENDBRANCH   1   8
BRANCH   2  12
ATOM     12  O   UNL     1      -6.841   1.192   0.000  1.00  0.00    -0.386 OA
ATOM     13  H   UNL     1       0.000   0.000   0.000  1.00  0.00     0.211 HD
ENDBRANCH   2  12
BRANCH   3  14
ATOM     14  O   UNL     1      -4.510   3.081   0.000  1.00  0.00    -0.384 OA
ATOM     15  H   UNL     1       0.000   0.000   0.000  1.00  0.00     0.211 HD
ENDBRANCH   3  14
BRANCH   4  16
ATOM     16  O   UNL     1      -1.709   2.007   0.000  1.00  0.00    -0.458 OA
BRANCH  16  17
ATOM     17  C   UNL     1      -0.308   1.470   0.000  1.00  0.00     0.169 A 
ATOM     18  C   UNL     1      -0.073  -0.012   0.000  1.00  0.00     0.067 A 
ATOM     19  C   UNL     1       0.857   2.414   0.000  1.00  0.00     0.202 A 
ATOM     20  C   UNL     1       1.327  -0.549   0.000  1.00  0.00     0.076 A 
ATOM     21  C   UNL     1       2.257   1.877   0.000  1.00  0.00     0.185 A 
ATOM     22  C   UNL     1       2.493   0.396   0.000  1.00  0.00     0.048 A 
ATOM     23  C   UNL     1       1.562  -2.030   0.000  1.00  0.00     0.344 A 
ATOM     24  O   UNL     1       3.423   2.821   0.000  1.00  0.00    -0.418 OA
ATOM     25  C   UNL     1       3.893  -0.141   0.000  1.00  0.00     0.048 A 
ATOM     26  O   UNL     1       2.963  -2.567   0.000  1.00  0.00    -0.418 OA
ATOM     27  C   UNL     1       4.824   2.284   0.000  1.00  0.00     0.344 A 
ATOM     28  C   UNL     1       4.128  -1.623   0.000  1.00  0.00     0.185 A 
ATOM     29  C   UNL     1       5.059   0.803   0.000  1.00  0.00     0.076 A 
ATOM     30  C   UNL     1       5.529  -2.160   0.000  1.00  0.00     0.202 A 
ATOM     31  C   UNL     1       6.459   0.266   0.000  1.00  0.00     0.066 A 
ATOM     32  C   UNL     1       6.694  -1.216   0.000  1.00  0.00     0.162 A 
ATOM     33  O   UNL     1       0.397  -2.975   0.000  1.00  0.00    -0.246 OA
ATOM     34  O   UNL     1       5.989   3.229   0.000  1.00  0.00    -0.246 OA
BRANCH  19  35
ATOM     35  O   UNL     1       0.622   3.896   0.000  1.00  0.00    -0.502 OA
ATOM     36  H   UNL     1       0.000   0.000   0.000  1.00  0.00     0.293 HD
ENDBRANCH  19  35
BRANCH  30  37
ATOM     37  O   UNL     1       5.764  -3.642   0.000  1.00  0.00    -0.502 OA
ATOM     38  H   UNL     1       0.000   0.000   0.000  1.00  0.00     0.293 HD
ENDBRANCH  30  37
BRANCH  32  39
ATOM     39  O   UNL     1       8.095  -1.753   0.000  1.00  0.00    -0.504 OA
ATOM     40  H   UNL     1       0.000   0.000   0.000  1.00  0.00     0.293 HD
ENDBRANCH  32  39
ENDBRANCH  16  17
ENDBRANCH   4  16
TORSDOF 9
