REMARK SMILES COc1cc(/C=C/C(=O)O[C@H]2[C@H](O[C@@H]3OC=C(C(=O)O)[C@H]4C[C@H](O)[C@H](C)[C@@H]34)O[C@H](CO)[C@@H](O)[C@@H]2O)ccc1O
REMARK SMILES IDX 10 1 8 2 9 3 7 4 6 5 5 6 3 7 4 8 38 9 37 10 36 11 2 12 1 13
REMARK SMILES IDX 39 14 11 16 12 17 34 18 28 19 32 20 29 21 13 22 14 23 15 24
REMARK SMILES IDX 27 25 16 26 25 27 21 28 17 29 23 30 22 31 26 32 18 33 19 34
REMARK SMILES IDX 20 35 24 37 35 39 33 41 30 43 31 44
REMARK H PARENT 39 15 20 36 24 38 35 40 33 42 31 45
ROOT
ATOM      1  O   UNL     1      -1.098  -0.994   0.000  1.00  0.00    -0.451 OA
ENDROOT
BRANCH   1   2
ATOM      2  C   UNL     1       0.165  -1.803   0.000  1.00  0.00     0.331 C 
ATOM      3  O   UNL     1       0.095  -3.302   0.000  1.00  0.00    -0.247 OA
BRANCH   2   4
ATOM      4  C   UNL     1       1.497  -1.114   0.000  1.00  0.00     0.094 C 
BRANCH   4   5
ATOM      5  C   UNL     1       2.760  -1.923   0.000  1.00  0.00     0.016 C 
BRANCH   5   6
ATOM      6  C   UNL     1       4.092  -1.234   0.000  1.00  0.00    -0.021 A 
ATOM      7  C   UNL     1       6.688  -1.354   0.000  1.00  0.00     0.161 A 
ATOM      8  C   UNL     1       5.355  -2.043   0.000  1.00  0.00     0.058 A 
ATOM      9  C   UNL     1       6.757   0.144   0.000  1.00  0.00     0.157 A 
ATOM     10  C   UNL     1       5.494   0.954   0.000  1.00  0.00     0.051 A 
ATOM     11  C   UNL     1       4.162   0.264   0.000  1.00  0.00     0.012 A 
BRANCH   7  12
ATOM     12  O   UNL     1       7.951  -2.163   0.000  1.00  0.00    -0.493 OA
ATOM     13  C   UNL     1       7.881  -3.662   0.000  1.00  0.00     0.278 C 
ENDBRANCH   7  12
BRANCH   9  14
ATOM     14  O   UNL     1       8.089   0.834   0.000  1.00  0.00    -0.504 OA
ATOM     15  H   UNL     1       0.000   0.000   0.000  1.00  0.00     0.293 HD
ENDBRANCH   9  14
ENDBRANCH   5   6
ENDBRANCH   4   5
ENDBRANCH   2   4
ENDBRANCH   1   2
BRANCH   1  16
ATOM     16  C   UNL     1      -2.431  -1.683   0.000  1.00  0.00     0.264 C 
ATOM     17  C   UNL     1      -3.694  -0.874   0.000  1.00  0.00     0.298 C 
ATOM     18  C   UNL     1      -2.500  -3.182   0.000  1.00  0.00     0.192 C 
ATOM     19  O   UNL     1      -5.026  -1.563   0.000  1.00  0.00    -0.340 OA
ATOM     20  C   UNL     1      -3.832  -3.871   0.000  1.00  0.00     0.178 C 
ATOM     21  C   UNL     1      -5.095  -3.062   0.000  1.00  0.00     0.178 C 
BRANCH  17  22
ATOM     22  O   UNL     1      -3.624   0.624   0.000  1.00  0.00    -0.309 OA
BRANCH  22  23
ATOM     23  C   UNL     1      -2.292   1.313   0.000  1.00  0.00     0.313 C 
ATOM     24  O   UNL     1      -1.029   0.504   0.000  1.00  0.00    -0.472 OA
ATOM     25  C   UNL     1      -2.223   2.812   0.000  1.00  0.00     0.072 C 
ATOM     26  C   UNL     1       0.303   1.193   0.000  1.00  0.00     0.202 C 
ATOM     27  C   UNL     1      -3.290   3.866   0.000  1.00  0.00     0.025 C 
ATOM     28  C   UNL     1      -0.890   3.501   0.000  1.00  0.00     0.042 C 
ATOM     29  C   UNL     1       0.372   2.692   0.000  1.00  0.00     0.075 C 
ATOM     30  C   UNL     1      -2.617   5.207   0.000  1.00  0.00     0.118 C 
ATOM     31  C   UNL     1      -1.134   4.981   0.000  1.00  0.00     0.041 C 
ATOM     32  C   UNL     1      -4.770   3.622   0.000  1.00  0.00     0.011 C 
BRANCH  29  33
ATOM     33  C   UNL     1       1.705   3.381   0.000  1.00  0.00     0.334 C 
ATOM     34  O   UNL     1       1.774   4.879   0.000  1.00  0.00    -0.247 OA
BRANCH  33  35
ATOM     35  O   UNL     1       2.968   2.572   0.000  1.00  0.00    -0.478 OA
ATOM     36  H   UNL     1       0.000   0.000   0.000  1.00  0.00     0.297 HD
ENDBRANCH  33  35
ENDBRANCH  29  33
BRANCH  30  37
ATOM     37  O   UNL     1      -3.306   6.539   0.000  1.00  0.00    -0.393 OA
ATOM     38  H   UNL     1       0.000   0.000   0.000  1.00  0.00     0.210 HD
ENDBRANCH  30  37
ENDBRANCH  22  23
ENDBRANCH  17  22
BRANCH  18  39
ATOM     39  O   UNL     1      -1.237  -3.991   0.000  1.00  0.00    -0.386 OA
ATOM     40  H   UNL     1       0.000   0.000   0.000  1.00  0.00     0.211 HD
ENDBRANCH  18  39
BRANCH  20  41
ATOM     41  O   UNL     1      -3.901  -5.369   0.000  1.00  0.00    -0.387 OA
ATOM     42  H   UNL     1       0.000   0.000   0.000  1.00  0.00     0.211 HD
ENDBRANCH  20  41
BRANCH  21  43
ATOM     43  C   UNL     1      -6.428  -3.751   0.000  1.00  0.00     0.191 C 
BRANCH  43  44
ATOM     44  O   UNL     1      -7.691  -2.942   0.000  1.00  0.00    -0.394 OA
ATOM     45  H   UNL     1       0.000   0.000   0.000  1.00  0.00     0.210 HD
ENDBRANCH  43  44
ENDBRANCH  21  43
ENDBRANCH   1  16
TORSDOF 16
