REMARK SMILES COc1cc(C)c2c(=O)c3c(O)cc(OC)cc3oc2c1
REMARK SMILES IDX 3 1 4 2 5 3 6 4 7 5 8 6 9 7 10 8 11 9 13 10 14 11 17 12
REMARK SMILES IDX 18 13 19 14 20 15 21 16 2 17 1 18 12 19 15 21 16 22
REMARK H PARENT 12 20
ROOT
ATOM      1  C   UNL     1      -3.776  -1.090   0.000  1.00  0.00     0.122 A 
ATOM      2  C   UNL     1      -3.867   0.407   0.000  1.00  0.00     0.050 A 
ATOM      3  C   UNL     1      -2.616   1.235   0.000  1.00  0.00    -0.032 A 
ATOM      4  C   UNL     1      -2.708   2.733   0.000  1.00  0.00     0.045 C 
ATOM      5  C   UNL     1      -1.274   0.566   0.000  1.00  0.00     0.069 A 
ATOM      6  C   UNL     1      -0.023   1.394   0.000  1.00  0.00     0.204 A 
ATOM      7  O   UNL     1      -0.115   2.891   0.000  1.00  0.00    -0.288 OA
ATOM      8  C   UNL     1       1.319   0.725   0.000  1.00  0.00     0.107 A 
ATOM      9  C   UNL     1       2.570   1.553   0.000  1.00  0.00     0.134 A 
ATOM     10  C   UNL     1       3.912   0.883   0.000  1.00  0.00     0.093 A 
ATOM     11  C   UNL     1       4.004  -0.614   0.000  1.00  0.00     0.126 A 
ATOM     12  C   UNL     1       2.753  -1.442   0.000  1.00  0.00     0.094 A 
ATOM     13  C   UNL     1       1.411  -0.772   0.000  1.00  0.00     0.146 A 
ATOM     14  O   UNL     1       0.160  -1.600   0.000  1.00  0.00    -0.455 OA
ATOM     15  C   UNL     1      -1.183  -0.931   0.000  1.00  0.00     0.142 A 
ATOM     16  C   UNL     1      -2.433  -1.759   0.000  1.00  0.00     0.094 A 
ENDROOT
BRANCH   1  17
ATOM     17  O   UNL     1      -5.027  -1.918   0.000  1.00  0.00    -0.497 OA
ATOM     18  C   UNL     1      -6.369  -1.248   0.000  1.00  0.00     0.278 C 
ENDBRANCH   1  17
BRANCH   9  19
ATOM     19  O   UNL     1       2.478   3.050   0.000  1.00  0.00    -0.507 OA
ATOM     20  H   UNL     1       0.000   0.000   0.000  1.00  0.00     0.293 HD
ENDBRANCH   9  19
BRANCH  11  21
ATOM     21  O   UNL     1       5.346  -1.283   0.000  1.00  0.00    -0.496 OA
ATOM     22  C   UNL     1       5.438  -2.780   0.000  1.00  0.00     0.278 C 
ENDBRANCH  11  21
TORSDOF 3
