REMARK SMILES CC(=O)O[C@@H]1CC2C(C)(C)C(=O)C=C[C@]2(C)C2CC[C@]3(C)[C@H](C4=CC(O)OC4=O)OC(=O)[C@H]4O[C@]43[C@@]21C
REMARK SMILES IDX 5 1 6 2 7 3 8 4 9 5 10 6 11 7 12 8 13 9 14 10 15 11 16 12
REMARK SMILES IDX 17 13 18 14 19 15 20 16 21 17 22 18 30 19 31 20 32 21 33 22
REMARK SMILES IDX 34 23 35 24 36 25 37 26 4 27 2 28 1 29 3 30 23 31 24 32
REMARK SMILES IDX 28 33 25 34 27 35 29 36 26 37
REMARK H PARENT 26 38
ROOT
ATOM      1  C   UNL     1      -1.766  -1.418   0.000  1.00  0.00     0.186 C 
ATOM      2  C   UNL     1      -3.179  -0.913   0.000  1.00  0.00     0.051 C 
ATOM      3  C   UNL     1      -3.448   0.563   0.000  1.00  0.00     0.016 C 
ATOM      4  C   UNL     1      -4.860   1.068   0.000  1.00  0.00     0.031 C 
ATOM      5  C   UNL     1      -6.360   1.060   0.000  1.00  0.00     0.020 C 
ATOM      6  C   UNL     1      -5.112  -0.410   0.000  1.00  0.00     0.020 C 
ATOM      7  C   UNL     1      -5.129   2.544   0.000  1.00  0.00     0.161 C 
ATOM      8  O   UNL     1      -6.541   3.049   0.000  1.00  0.00    -0.294 OA
ATOM      9  C   UNL     1      -3.985   3.515   0.000  1.00  0.00     0.044 C 
ATOM     10  C   UNL     1      -2.573   3.010   0.000  1.00  0.00    -0.016 C 
ATOM     11  C   UNL     1      -2.304   1.534   0.000  1.00  0.00    -0.007 C 
ATOM     12  C   UNL     1      -1.161   2.505   0.000  1.00  0.00     0.016 C 
ATOM     13  C   UNL     1      -0.892   1.029   0.000  1.00  0.00     0.012 C 
ATOM     14  C   UNL     1       0.252   2.000   0.000  1.00  0.00     0.006 C 
ATOM     15  C   UNL     1       1.664   1.494   0.000  1.00  0.00     0.014 C 
ATOM     16  C   UNL     1       1.933   0.019   0.000  1.00  0.00     0.042 C 
ATOM     17  C   UNL     1       3.077   0.989   0.000  1.00  0.00     0.019 C 
ATOM     18  C   UNL     1       3.345  -0.486   0.000  1.00  0.00     0.223 C 
ATOM     19  O   UNL     1       3.614  -1.962   0.000  1.00  0.00    -0.454 OA
ATOM     20  C   UNL     1       2.471  -2.933   0.000  1.00  0.00     0.339 C 
ATOM     21  O   UNL     1       2.740  -4.408   0.000  1.00  0.00    -0.249 OA
ATOM     22  C   UNL     1       1.058  -2.428   0.000  1.00  0.00     0.262 C 
ATOM     23  O   UNL     1      -0.354  -1.923   0.000  1.00  0.00    -0.352 OA
ATOM     24  C   UNL     1       0.789  -0.952   0.000  1.00  0.00     0.125 C 
ATOM     25  C   UNL     1      -0.623  -0.447   0.000  1.00  0.00     0.041 C 
ATOM     26  C   UNL     1      -2.035   0.058   0.000  1.00  0.00     0.019 C 
ENDROOT
BRANCH   1  27
ATOM     27  O   UNL     1      -1.498  -2.893   0.000  1.00  0.00    -0.462 OA
BRANCH  27  28
ATOM     28  C   UNL     1      -2.641  -3.864   0.000  1.00  0.00     0.302 C 
ATOM     29  C   UNL     1      -2.372  -5.340   0.000  1.00  0.00     0.139 C 
ATOM     30  O   UNL     1      -4.054  -3.359   0.000  1.00  0.00    -0.253 OA
ENDBRANCH  27  28
ENDBRANCH   1  27
BRANCH  18  31
ATOM     31  C   UNL     1       4.489   0.484   0.000  1.00  0.00     0.080 C 
ATOM     32  C   UNL     1       4.376   1.980   0.000  1.00  0.00     0.063 C 
ATOM     33  C   UNL     1       5.947   0.130   0.000  1.00  0.00     0.340 C 
ATOM     34  C   UNL     1       5.764   2.550   0.000  1.00  0.00     0.334 C 
ATOM     35  O   UNL     1       6.734   1.406   0.000  1.00  0.00    -0.429 OA
ATOM     36  O   UNL     1       6.516  -1.258   0.000  1.00  0.00    -0.246 OA
BRANCH  34  37
ATOM     37  O   UNL     1       6.118   4.007   0.000  1.00  0.00    -0.355 OA
ATOM     38  H   UNL     1       0.000   0.000   0.000  1.00  0.00     0.215 HD
ENDBRANCH  34  37
ENDBRANCH  18  31
TORSDOF 4
