REMARK SMILES CC(=O)Oc1cc(C(C)C)ccc1C
REMARK SMILES IDX 5 1 6 2 7 3 11 4 12 5 13 6 14 7 4 8 2 9 1 10 3 11 8 12 9 13
REMARK SMILES IDX 10 14
REMARK H PARENT
ROOT
ATOM      1  C   UNL     1       0.890   0.624   0.000  1.00  0.00     0.134 A 
ATOM      2  C   UNL     1      -0.173  -0.434   0.000  1.00  0.00     0.051 A 
ATOM      3  C   UNL     1      -1.621  -0.042   0.000  1.00  0.00    -0.042 A 
ATOM      4  C   UNL     1      -2.006   1.408   0.000  1.00  0.00     0.004 A 
ATOM      5  C   UNL     1      -0.942   2.466   0.000  1.00  0.00     0.007 A 
ATOM      6  C   UNL     1       0.506   2.074   0.000  1.00  0.00    -0.008 A 
ATOM      7  C   UNL     1       1.569   3.132   0.000  1.00  0.00     0.048 C 
ENDROOT
BRANCH   1   8
ATOM      8  O   UNL     1       2.338   0.233   0.000  1.00  0.00    -0.426 OA
BRANCH   8   9
ATOM      9  C   UNL     1       2.723  -1.217   0.000  1.00  0.00     0.308 C 
ATOM     10  C   UNL     1       4.171  -1.609   0.000  1.00  0.00     0.139 C 
ATOM     11  O   UNL     1       1.660  -2.275   0.000  1.00  0.00    -0.252 OA
ENDBRANCH   8   9
ENDBRANCH   1   8
BRANCH   3  12
ATOM     12  C   UNL     1      -2.684  -1.100   0.000  1.00  0.00     0.013 C 
ATOM     13  C   UNL     1      -4.132  -0.709   0.000  1.00  0.00     0.012 C 
ATOM     14  C   UNL     1      -2.299  -2.550   0.000  1.00  0.00     0.012 C 
ENDBRANCH   3  12
TORSDOF 3
