REMARK SMILES CC1(C)C(=O)C=C[C@@]2(C)C1=C(O)C(=O)[C@@H]1[C@@H]2CC[C@@]2(C)[C@H](C3=CC(=O)OC3O)C[C@H]3O[C@]132
REMARK SMILES IDX 1 1 2 2 3 3 4 4 5 5 6 6 7 7 8 8 9 9 10 10 11 11 13 12 14 13
REMARK SMILES IDX 15 14 16 15 17 16 18 17 19 18 20 19 21 20 29 21 30 22 31 23
REMARK SMILES IDX 32 24 12 25 22 27 23 28 27 29 24 30 26 31 25 32 28 33
REMARK H PARENT 12 26 28 34
ROOT
ATOM      1  C   UNL     1      -5.103  -1.308   0.000  1.00  0.00     0.025 C 
ATOM      2  C   UNL     1      -5.024   0.190   0.000  1.00  0.00     0.053 C 
ATOM      3  C   UNL     1      -6.513   0.007   0.000  1.00  0.00     0.025 C 
ATOM      4  C   UNL     1      -5.463   1.625   0.000  1.00  0.00     0.165 C 
ATOM      5  O   UNL     1      -6.925   1.962   0.000  1.00  0.00    -0.294 OA
ATOM      6  C   UNL     1      -4.440   2.721   0.000  1.00  0.00     0.045 C 
ATOM      7  C   UNL     1      -2.978   2.384   0.000  1.00  0.00    -0.012 C 
ATOM      8  C   UNL     1      -2.540   0.950   0.000  1.00  0.00     0.015 C 
ATOM      9  C   UNL     1      -1.517   2.047   0.000  1.00  0.00     0.021 C 
ATOM     10  C   UNL     1      -3.563  -0.147   0.000  1.00  0.00    -0.001 C 
ATOM     11  C   UNL     1      -3.124  -1.582   0.000  1.00  0.00     0.160 C 
ATOM     12  C   UNL     1      -1.663  -1.919   0.000  1.00  0.00     0.203 C 
ATOM     13  O   UNL     1      -1.224  -3.354   0.000  1.00  0.00    -0.290 OA
ATOM     14  C   UNL     1      -0.640  -0.822   0.000  1.00  0.00     0.104 C 
ATOM     15  C   UNL     1      -1.078   0.612   0.000  1.00  0.00     0.017 C 
ATOM     16  C   UNL     1      -0.055   1.709   0.000  1.00  0.00     0.006 C 
ATOM     17  C   UNL     1       1.406   1.372   0.000  1.00  0.00     0.011 C 
ATOM     18  C   UNL     1       1.845  -0.063   0.000  1.00  0.00     0.007 C 
ATOM     19  C   UNL     1       2.977   0.921   0.000  1.00  0.00     0.015 C 
ATOM     20  C   UNL     1       3.204  -0.697   0.000  1.00  0.00     0.033 C 
ATOM     21  C   UNL     1       3.021  -2.186   0.000  1.00  0.00     0.044 C 
ATOM     22  C   UNL     1       1.549  -2.472   0.000  1.00  0.00     0.153 C 
ATOM     23  O   UNL     1       0.049  -2.446   0.000  1.00  0.00    -0.365 OA
ATOM     24  C   UNL     1       0.822  -1.160   0.000  1.00  0.00     0.111 C 
ENDROOT
BRANCH  11  25
ATOM     25  O   UNL     1      -4.147  -2.679   0.000  1.00  0.00    -0.504 OA
ATOM     26  H   UNL     1       0.000   0.000   0.000  1.00  0.00     0.293 HD
ENDBRANCH  11  25
BRANCH  20  27
ATOM     27  C   UNL     1       4.516   0.030   0.000  1.00  0.00     0.009 C 
ATOM     28  C   UNL     1       4.699   1.519   0.000  1.00  0.00     0.099 C 
ATOM     29  C   UNL     1       5.875  -0.604   0.000  1.00  0.00     0.337 C 
ATOM     30  C   UNL     1       6.171   1.805   0.000  1.00  0.00     0.333 C 
ATOM     31  O   UNL     1       6.899   0.493   0.000  1.00  0.00    -0.429 OA
ATOM     32  O   UNL     1       6.805   3.165   0.000  1.00  0.00    -0.247 OA
BRANCH  29  33
ATOM     33  O   UNL     1       6.162  -2.076   0.000  1.00  0.00    -0.355 OA
ATOM     34  H   UNL     1       0.000   0.000   0.000  1.00  0.00     0.215 HD
ENDBRANCH  29  33
ENDBRANCH  20  27
TORSDOF 3
