REMARK SMILES CC(C)=CCC[C@@]1(C)Oc2c(CC=C(C)C)cc(C(=O)O)cc2C[C@@H]1O
REMARK SMILES IDX 7 1 8 2 9 3 10 4 11 5 17 6 18 7 22 8 23 9 24 10 25 11 6 12
REMARK SMILES IDX 5 13 4 14 2 15 1 16 3 17 26 18 12 20 13 21 14 22 15 23 16 24
REMARK SMILES IDX 19 25 20 26 21 27
REMARK H PARENT 26 19 21 28
ROOT
ATOM      1  C   UNL     1      -0.159  -2.963   0.000  1.00  0.00     0.133 C 
ATOM      2  C   UNL     1      -0.514  -4.421   0.000  1.00  0.00     0.059 C 
ATOM      3  O   UNL     1      -0.324  -1.473   0.000  1.00  0.00    -0.484 OA
ATOM      4  C   UNL     1       0.885  -0.584   0.000  1.00  0.00     0.127 A 
ATOM      5  C   UNL     1       0.720   0.906   0.000  1.00  0.00    -0.001 A 
ATOM      6  C   UNL     1       1.929   1.795   0.000  1.00  0.00     0.023 A 
ATOM      7  C   UNL     1       3.303   1.192   0.000  1.00  0.00     0.060 A 
ATOM      8  C   UNL     1       3.467  -0.299   0.000  1.00  0.00     0.023 A 
ATOM      9  C   UNL     1       2.259  -1.187   0.000  1.00  0.00    -0.002 A 
ATOM     10  C   UNL     1       2.423  -2.678   0.000  1.00  0.00     0.075 C 
ATOM     11  C   UNL     1       1.215  -3.566   0.000  1.00  0.00     0.162 C 
ENDROOT
BRANCH   1  12
ATOM     12  C   UNL     1      -1.656  -2.867   0.000  1.00  0.00     0.055 C 
BRANCH  12  13
ATOM     13  C   UNL     1      -2.321  -1.522   0.000  1.00  0.00     0.031 C 
BRANCH  13  14
ATOM     14  C   UNL     1      -3.817  -1.426   0.000  1.00  0.00    -0.028 C 
BRANCH  14  15
ATOM     15  C   UNL     1      -4.482  -0.081   0.000  1.00  0.00    -0.080 C 
ATOM     16  C   UNL     1      -5.979   0.015   0.000  1.00  0.00     0.039 C 
ATOM     17  C   UNL     1      -3.650   1.167   0.000  1.00  0.00     0.039 C 
ENDBRANCH  14  15
ENDBRANCH  13  14
ENDBRANCH  12  13
ENDBRANCH   1  12
BRANCH  11  18
ATOM     18  O   UNL     1       1.379  -5.057   0.000  1.00  0.00    -0.389 OA
ATOM     19  H   UNL     1       0.000   0.000   0.000  1.00  0.00     0.211 HD
ENDBRANCH  11  18
BRANCH   5  20
ATOM     20  C   UNL     1      -0.653   1.509   0.000  1.00  0.00     0.066 C 
BRANCH  20  21
ATOM     21  C   UNL     1      -0.818   3.000   0.000  1.00  0.00    -0.023 C 
BRANCH  21  22
ATOM     22  C   UNL     1      -2.192   3.603   0.000  1.00  0.00    -0.080 C 
ATOM     23  C   UNL     1      -2.357   5.094   0.000  1.00  0.00     0.039 C 
ATOM     24  C   UNL     1      -3.401   2.715   0.000  1.00  0.00     0.039 C 
ENDBRANCH  21  22
ENDBRANCH  20  21
ENDBRANCH   5  20
BRANCH   7  25
ATOM     25  C   UNL     1       4.511   2.080   0.000  1.00  0.00     0.335 C 
ATOM     26  O   UNL     1       4.346   3.571   0.000  1.00  0.00    -0.246 OA
BRANCH  25  27
ATOM     27  O   UNL     1       5.885   1.478   0.000  1.00  0.00    -0.478 OA
ATOM     28  H   UNL     1       0.000   0.000   0.000  1.00  0.00     0.297 HD
ENDBRANCH  25  27
ENDBRANCH   7  25
TORSDOF 10
