REMARK SMILES CC1=C[C@@]2(O)C(=O)[C@H](C)C[C@@H]3[C@H](CC[C@](C)(O)/C=C\2C1=O)C3(C)C
REMARK SMILES IDX 6 1 7 2 4 3 2 4 3 5 20 6 19 7 1 8 21 9 5 10 18 12 15 13
REMARK SMILES IDX 16 14 17 16 8 18 9 19 10 20 11 21 12 22 22 23 23 24 24 25
REMARK SMILES IDX 13 26 14 27
REMARK H PARENT 5 11 17 17
REMARK Flexibility Score:   42.900
ROOT
ATOM      1  C   UNL     1       0.407   2.392   0.000  1.00  0.00     0.175 C 
ATOM      2  O   UNL     1       0.937   3.795   0.000  1.00  0.00    -0.295 OA
ENDROOT
BRANCH   1   3
ATOM      3  C   UNL     1       1.603   1.487   0.000  1.00  0.00     0.171 C 
ATOM      4  C   UNL     1       3.694   0.254   0.000  1.00  0.00    -0.004 C 
ATOM      5  C   UNL     1       3.097   1.630   0.000  1.00  0.00     0.028 C 
ATOM      6  C   UNL     1       2.570  -0.739   0.000  1.00  0.00     0.188 C 
ATOM      7  C   UNL     1       1.278   0.023   0.000  1.00  0.00     0.042 C 
ATOM      8  C   UNL     1       5.158  -0.071   0.000  1.00  0.00     0.048 C 
ATOM      9  O   UNL     1       2.713  -2.232   0.000  1.00  0.00    -0.289 OA
BRANCH   3  10
ATOM     10  O   UNL     1       2.402   2.757   0.000  1.00  0.00    -0.373 OA
ATOM     11  H   UNL     1       0.000   0.000   0.000  1.00  0.00     0.212 HD
ENDBRANCH   3  10
BRANCH   7  12
ATOM     12  C   UNL     1       1.796  -1.385   0.000  1.00  0.00     0.019 C 
BRANCH  12  13
ATOM     13  C   UNL     1       0.730  -2.441   0.000  1.00  0.00     0.081 CG0
ATOM     14  C   UNL     1       0.545  -3.929   0.000  1.00  0.00     0.047 C 
ATOM     15  G   UNL     1      -0.737  -2.753   0.000  1.00  0.00     0.000 G0
BRANCH  13  16
ATOM     16  O   UNL     1       2.076  -3.102   0.000  1.00  0.00    -0.386 OA
ATOM     17  H   UNL     1       0.000   0.000   0.000  1.00  0.00     0.211 HD
ENDBRANCH  13  16
ENDBRANCH  12  13
ENDBRANCH   7  12
ENDBRANCH   1   3
BRANCH   1  18
ATOM     18  C   UNL     1      -1.089   2.506   0.000  1.00  0.00     0.057 C 
ATOM     19  C   UNL     1      -1.401   3.973   0.000  1.00  0.00     0.016 C 
BRANCH  18  20
ATOM     20  C   UNL     1      -2.409   1.793   0.000  1.00  0.00     0.015 C 
BRANCH  20  21
ATOM     21  C   UNL     1      -3.134   0.479   0.000  1.00  0.00    -0.001 C 
ATOM     22  C   UNL     1      -3.034  -1.017   0.000  1.00  0.00    -0.001 C 
ATOM     23  C   UNL     1      -4.380  -0.356   0.000  1.00  0.00    -0.029 C 
ATOM     24  C   UNL     1      -5.265  -1.566   0.000  1.00  0.00     0.011 C 
ATOM     25  C   UNL     1      -5.418   0.727   0.000  1.00  0.00     0.011 C 
BRANCH  22  26
ATOM     26  C   UNL     1      -2.140  -2.222   0.000  1.00  0.00     0.008 C 
BRANCH  26  27
ATOM     27  C   UNL     1      -0.737  -2.753   0.000  1.00  0.00     0.039 CG0
ATOM     28  G   UNL     1       0.730  -2.441   0.000  1.00  0.00     0.000 G0
ENDBRANCH  26  27
ENDBRANCH  22  26
ENDBRANCH  20  21
ENDBRANCH  18  20
ENDBRANCH   1  18
TORSDOF 2
