REMARK SMILES CC1(C)CC[C@]2(C(=O)O)CC[C@]3(C)C(=CC(=O)C4[C@@]5(C)CCC(=O)C(C)(C)C5CC[C@]43C)C2C1
REMARK SMILES IDX 7 1 8 2 6 3 2 4 4 5 34 6 5 7 33 8 14 9 10 10 12 11 15 12
REMARK SMILES IDX 11 13 31 14 16 15 30 16 18 17 29 18 19 19 28 20 21 21 25 22
REMARK SMILES IDX 22 23 23 24 1 25 3 26 13 27 32 28 17 29 20 30 26 31 27 32
REMARK SMILES IDX 24 33 9 34
REMARK H PARENT 9 35
ROOT
ATOM      1  C   UNL     1      -4.390   2.109   0.000  1.00  0.00     0.310 C 
ATOM      2  O   UNL     1      -5.890   2.125   0.000  1.00  0.00    -0.252 OA
ENDROOT
BRANCH   1   3
ATOM      3  C   UNL     1      -3.654   0.802   0.000  1.00  0.00     0.074 C 
ATOM      4  C   UNL     1      -5.181  -1.780   0.000  1.00  0.00    -0.035 C 
ATOM      5  C   UNL     1      -5.917  -0.473   0.000  1.00  0.00     0.007 C 
ATOM      6  C   UNL     1      -3.681  -1.796   0.000  1.00  0.00     0.015 C 
ATOM      7  C   UNL     1      -5.154   0.818   0.000  1.00  0.00     0.020 C 
ATOM      8  C   UNL     1      -2.917  -0.505   0.000  1.00  0.00     0.033 C 
ATOM      9  C   UNL     1      -1.417  -0.520   0.000  1.00  0.00    -0.056 C 
ATOM     10  C   UNL     1      -2.890   2.093   0.000  1.00  0.00     0.020 C 
ATOM     11  C   UNL     1      -0.654   0.771   0.000  1.00  0.00    -0.005 C 
ATOM     12  C   UNL     1      -0.681  -1.827   0.000  1.00  0.00     0.047 C 
ATOM     13  C   UNL     1      -1.390   2.078   0.000  1.00  0.00     0.013 C 
ATOM     14  C   UNL     1       0.846   0.755   0.000  1.00  0.00    -0.013 C 
ATOM     15  C   UNL     1       0.819  -1.843   0.000  1.00  0.00     0.159 C 
ATOM     16  C   UNL     1       1.610   2.046   0.000  1.00  0.00     0.009 C 
ATOM     17  C   UNL     1       1.583  -0.551   0.000  1.00  0.00     0.073 C 
ATOM     18  C   UNL     1       3.110   2.031   0.000  1.00  0.00     0.006 C 
ATOM     19  C   UNL     1       3.083  -0.567   0.000  1.00  0.00    -0.018 C 
ATOM     20  C   UNL     1       3.846   0.724   0.000  1.00  0.00     0.009 C 
ATOM     21  C   UNL     1       3.819  -1.874   0.000  1.00  0.00     0.015 C 
ATOM     22  C   UNL     1       5.346   0.709   0.000  1.00  0.00     0.027 C 
ATOM     23  C   UNL     1       5.319  -1.889   0.000  1.00  0.00     0.077 C 
ATOM     24  C   UNL     1       6.082  -0.598   0.000  1.00  0.00     0.138 C 
ATOM     25  C   UNL     1      -4.936  -3.260   0.000  1.00  0.00     0.011 C 
ATOM     26  C   UNL     1      -6.595  -2.279   0.000  1.00  0.00     0.011 C 
ATOM     27  C   UNL     1       0.083  -0.536   0.000  1.00  0.00     0.017 C 
ATOM     28  C   UNL     1       0.110   2.062   0.000  1.00  0.00     0.013 C 
ATOM     29  O   UNL     1       1.556  -3.149   0.000  1.00  0.00    -0.295 OA
ATOM     30  C   UNL     1       2.319  -1.858   0.000  1.00  0.00     0.012 C 
ATOM     31  C   UNL     1       5.101   2.188   0.000  1.00  0.00     0.020 C 
ATOM     32  C   UNL     1       6.761   1.207   0.000  1.00  0.00     0.020 C 
ATOM     33  O   UNL     1       7.582  -0.614   0.000  1.00  0.00    -0.299 OA
ENDBRANCH   1   3
BRANCH   1  34
ATOM     34  O   UNL     1      -3.627   3.400   0.000  1.00  0.00    -0.481 OA
ATOM     35  H   UNL     1       0.000   0.000   0.000  1.00  0.00     0.296 HD
ENDBRANCH   1  34
TORSDOF 2
