REMARK SMILES COc1cc2c(=O)c3c(OC(C)=O)cccc3oc2c(OC(C)=O)c1OC
REMARK SMILES IDX 3 1 4 2 5 3 19 4 18 5 17 6 16 7 15 8 14 9 9 10 8 11 6 12
REMARK SMILES IDX 7 13 20 14 25 15 2 16 1 17 26 18 27 19 21 20 22 21 23 22
REMARK SMILES IDX 24 23 10 24 11 25 12 26 13 27
REMARK H PARENT
ROOT
ATOM      1  C   UNL     1      -2.513   1.864   0.000  1.00  0.00     0.165 A 
ATOM      2  C   UNL     1      -1.016   1.960   0.000  1.00  0.00     0.066 A 
ATOM      3  C   UNL     1      -0.185   0.711   0.000  1.00  0.00     0.073 A 
ATOM      4  C   UNL     1      -0.850  -0.633   0.000  1.00  0.00     0.185 A 
ATOM      5  O   UNL     1      -0.018  -1.881   0.000  1.00  0.00    -0.452 OA
ATOM      6  C   UNL     1       1.478  -1.785   0.000  1.00  0.00     0.142 A 
ATOM      7  C   UNL     1       2.310  -3.034   0.000  1.00  0.00     0.048 A 
ATOM      8  C   UNL     1       3.807  -2.938   0.000  1.00  0.00     0.008 A 
ATOM      9  C   UNL     1       4.472  -1.593   0.000  1.00  0.00     0.048 A 
ATOM     10  C   UNL     1       3.641  -0.345   0.000  1.00  0.00     0.145 A 
ATOM     11  C   UNL     1       2.144  -0.441   0.000  1.00  0.00     0.108 A 
ATOM     12  C   UNL     1       1.312   0.807   0.000  1.00  0.00     0.204 A 
ATOM     13  O   UNL     1       1.977   2.152   0.000  1.00  0.00    -0.288 OA
ATOM     14  C   UNL     1      -2.347  -0.729   0.000  1.00  0.00     0.219 A 
ATOM     15  C   UNL     1      -3.179   0.519   0.000  1.00  0.00     0.208 A 
ENDROOT
BRANCH   1  16
ATOM     16  O   UNL     1      -3.345   3.112   0.000  1.00  0.00    -0.493 OA
ATOM     17  C   UNL     1      -2.680   4.456   0.000  1.00  0.00     0.278 C 
ENDBRANCH   1  16
BRANCH  15  18
ATOM     18  O   UNL     1      -4.676   0.423   0.000  1.00  0.00    -0.490 OA
ATOM     19  C   UNL     1      -5.507   1.672   0.000  1.00  0.00     0.278 C 
ENDBRANCH  15  18
BRANCH  14  20
ATOM     20  O   UNL     1      -3.012  -2.073   0.000  1.00  0.00    -0.419 OA
BRANCH  20  21
ATOM     21  C   UNL     1      -4.509  -2.170   0.000  1.00  0.00     0.308 C 
ATOM     22  C   UNL     1      -5.175  -3.514   0.000  1.00  0.00     0.139 C 
ATOM     23  O   UNL     1      -5.341  -0.921   0.000  1.00  0.00    -0.252 OA
ENDBRANCH  20  21
ENDBRANCH  14  20
BRANCH  10  24
ATOM     24  O   UNL     1       4.306   0.999   0.000  1.00  0.00    -0.426 OA
BRANCH  24  25
ATOM     25  C   UNL     1       5.803   1.095   0.000  1.00  0.00     0.308 C 
ATOM     26  C   UNL     1       6.468   2.440   0.000  1.00  0.00     0.139 C 
ATOM     27  O   UNL     1       6.635  -0.153   0.000  1.00  0.00    -0.252 OA
ENDBRANCH  24  25
ENDBRANCH  10  24
TORSDOF 6
