REMARK SMILES CC(C)(O)C(O)C1C[C@@H]([C@@H]2CC[C@]3(C)C4=CC[C@H]5C(C)(C)C(=O)CC[C@]5(C)[C@H]4CC[C@@]23C)[C@H](O)O1
REMARK SMILES IDX 5 1 2 2 1 3 3 4 4 5 6 7 7 9 8 10 35 11 9 12 33 13 10 14
REMARK SMILES IDX 11 15 31 16 12 17 30 18 13 19 29 20 15 21 28 22 16 23 26 24
REMARK SMILES IDX 17 25 25 26 18 27 24 28 19 29 22 30 32 31 14 32 27 33 20 34
REMARK SMILES IDX 21 35 23 36 34 37
REMARK H PARENT 4 6 6 8 34 38
ROOT
ATOM      1  C   UNL     1       5.786   1.699   0.000  1.00  0.00     0.174 C 
ENDROOT
BRANCH   1   2
ATOM      2  C   UNL     1       7.284   1.621   0.000  1.00  0.00     0.087 C 
ATOM      3  C   UNL     1       7.206   0.123   0.000  1.00  0.00     0.044 C 
ATOM      4  C   UNL     1       7.361   3.119   0.000  1.00  0.00     0.044 C 
BRANCH   2   5
ATOM      5  O   UNL     1       8.782   1.544   0.000  1.00  0.00    -0.388 OA
ATOM      6  H   UNL     1       0.000   0.000   0.000  1.00  0.00     0.211 HD
ENDBRANCH   2   5
ENDBRANCH   1   2
BRANCH   1   7
ATOM      7  O   UNL     1       5.104   3.035   0.000  1.00  0.00    -0.387 OA
ATOM      8  H   UNL     1       0.000   0.000   0.000  1.00  0.00     0.211 HD
ENDBRANCH   1   7
BRANCH   1   9
ATOM      9  C   UNL     1       4.970   0.440   0.000  1.00  0.00     0.153 C 
ATOM     10  C   UNL     1       3.472   0.361   0.000  1.00  0.00     0.044 C 
ATOM     11  O   UNL     1       5.508  -0.960   0.000  1.00  0.00    -0.347 OA
ATOM     12  C   UNL     1       3.084  -1.088   0.000  1.00  0.00     0.052 C 
ATOM     13  C   UNL     1       4.343  -1.904   0.000  1.00  0.00     0.250 C 
BRANCH  12  14
ATOM     14  C   UNL     1       1.684  -1.627   0.000  1.00  0.00     0.004 C 
ATOM     15  C   UNL     1       1.297  -3.076   0.000  1.00  0.00     0.005 C 
ATOM     16  C   UNL     1       0.426  -0.810   0.000  1.00  0.00    -0.020 C 
ATOM     17  C   UNL     1      -0.201  -3.155   0.000  1.00  0.00     0.012 C 
ATOM     18  C   UNL     1       0.190   0.671   0.000  1.00  0.00     0.008 C 
ATOM     19  C   UNL     1      -0.740  -1.755   0.000  1.00  0.00    -0.006 C 
ATOM     20  C   UNL     1      -1.211   1.208   0.000  1.00  0.00     0.009 C 
ATOM     21  C   UNL     1      -2.140  -1.218   0.000  1.00  0.00    -0.064 C 
ATOM     22  C   UNL     1      -2.376   0.263   0.000  1.00  0.00     0.021 C 
ATOM     23  C   UNL     1      -3.305  -2.163   0.000  1.00  0.00    -0.027 C 
ATOM     24  C   UNL     1      -3.776   0.800   0.000  1.00  0.00    -0.022 C 
ATOM     25  C   UNL     1      -4.706  -1.626   0.000  1.00  0.00     0.032 C 
ATOM     26  C   UNL     1      -4.012   2.281   0.000  1.00  0.00     0.015 C 
ATOM     27  C   UNL     1      -4.942  -0.145   0.000  1.00  0.00     0.012 C 
ATOM     28  C   UNL     1      -5.413   2.818   0.000  1.00  0.00     0.077 C 
ATOM     29  C   UNL     1      -6.342   0.392   0.000  1.00  0.00     0.027 C 
ATOM     30  C   UNL     1      -6.578   1.873   0.000  1.00  0.00     0.138 C 
ATOM     31  C   UNL     1       1.683   0.007   0.000  1.00  0.00     0.012 C 
ATOM     32  C   UNL     1      -1.800  -2.816   0.000  1.00  0.00     0.017 C 
ATOM     33  C   UNL     1      -2.611   1.744   0.000  1.00  0.00     0.012 C 
ATOM     34  C   UNL     1      -7.842   0.417   0.000  1.00  0.00     0.020 C 
ATOM     35  C   UNL     1      -6.628  -1.081   0.000  1.00  0.00     0.020 C 
ATOM     36  O   UNL     1      -7.979   2.410   0.000  1.00  0.00    -0.299 OA
ENDBRANCH  12  14
BRANCH  13  37
ATOM     37  O   UNL     1       4.422  -3.402   0.000  1.00  0.00    -0.368 OA
ATOM     38  H   UNL     1       0.000   0.000   0.000  1.00  0.00     0.213 HD
ENDBRANCH  13  37
ENDBRANCH   1   9
TORSDOF 6
