REMARK SMILES COc1cc2c(O)c(C)c(C)c(-c3ccc4c(c3)OCO4)c2cc1OC
REMARK SMILES IDX 3 1 4 2 5 3 6 4 8 5 9 6 10 7 11 8 12 9 22 10 23 11 24 12
REMARK SMILES IDX 2 13 1 14 25 15 26 16 7 17 13 19 14 20 18 21 15 22 17 23
REMARK SMILES IDX 16 24 19 25 21 26 20 27
REMARK H PARENT 7 18
ROOT
ATOM      1  C   UNL     1      -3.620  -1.108   0.000  1.00  0.00     0.161 A 
ATOM      2  C   UNL     1      -3.529   0.389   0.000  1.00  0.00     0.063 A 
ATOM      3  C   UNL     1      -2.186   1.059   0.000  1.00  0.00     0.028 A 
ATOM      4  C   UNL     1      -2.095   2.556   0.000  1.00  0.00     0.126 A 
ATOM      5  C   UNL     1      -0.752   3.225   0.000  1.00  0.00    -0.005 A 
ATOM      6  C   UNL     1      -0.661   4.722   0.000  1.00  0.00     0.049 C 
ATOM      7  C   UNL     1       0.498   2.397   0.000  1.00  0.00    -0.036 A 
ATOM      8  C   UNL     1       1.841   3.066   0.000  1.00  0.00     0.045 C 
ATOM      9  C   UNL     1       0.407   0.900   0.000  1.00  0.00    -0.007 A 
ATOM     10  C   UNL     1      -0.936   0.231   0.000  1.00  0.00    -0.003 A 
ATOM     11  C   UNL     1      -1.027  -1.267   0.000  1.00  0.00     0.060 A 
ATOM     12  C   UNL     1      -2.370  -1.936   0.000  1.00  0.00     0.161 A 
ENDROOT
BRANCH   1  13
ATOM     13  O   UNL     1      -4.963  -1.777   0.000  1.00  0.00    -0.493 OA
ATOM     14  C   UNL     1      -6.214  -0.949   0.000  1.00  0.00     0.278 C 
ENDBRANCH   1  13
BRANCH  12  15
ATOM     15  O   UNL     1      -2.461  -3.433   0.000  1.00  0.00    -0.493 OA
ATOM     16  C   UNL     1      -3.804  -4.102   0.000  1.00  0.00     0.278 C 
ENDBRANCH  12  15
BRANCH   4  17
ATOM     17  O   UNL     1      -3.346   3.384   0.000  1.00  0.00    -0.507 OA
ATOM     18  H   UNL     1       0.000   0.000   0.000  1.00  0.00     0.293 HD
ENDBRANCH   4  17
BRANCH   9  19
ATOM     19  C   UNL     1       1.658   0.072   0.000  1.00  0.00    -0.014 A 
ATOM     20  C   UNL     1       1.566  -1.425   0.000  1.00  0.00     0.013 A 
ATOM     21  C   UNL     1       3.000   0.741   0.000  1.00  0.00     0.059 A 
ATOM     22  C   UNL     1       2.817  -2.253   0.000  1.00  0.00     0.051 A 
ATOM     23  C   UNL     1       4.251  -0.087   0.000  1.00  0.00     0.166 A 
ATOM     24  C   UNL     1       4.159  -1.584   0.000  1.00  0.00     0.165 A 
ATOM     25  O   UNL     1       5.703   0.289   0.000  1.00  0.00    -0.454 OA
ATOM     26  O   UNL     1       5.555  -2.134   0.000  1.00  0.00    -0.454 OA
ATOM     27  C   UNL     1       6.509  -0.976   0.000  1.00  0.00     0.468 C 
ENDBRANCH   9  19
TORSDOF 4
