REMARK SMILES C=C/C(C)=C\C[C@]1(C)[C@H](C)[C@@H](OC(C)=O)[C@H](OC(C)=O)[C@@]23C(=C[C@H](OC)C[C@@H]12)[C@@H](OC(C)=O)O[C@H]3OC(C)=O
REMARK SMILES IDX 6 1 5 2 3 3 4 4 2 5 1 6 7 7 9 8 28 9 11 10 27 11 21 12 16 13
REMARK SMILES IDX 24 14 22 15 35 16 23 17 29 18 34 19 8 20 10 21 12 22 13 23
REMARK SMILES IDX 14 24 15 25 17 26 18 27 19 28 20 29 25 30 26 31 36 32 37 33
REMARK SMILES IDX 38 34 39 35 30 36 31 37 32 38 33 39
REMARK H PARENT
ROOT
ATOM      1  C   UNL     1       3.312  -0.465   0.000  1.00  0.00     0.035 C 
ENDROOT
BRANCH   1   2
ATOM      2  C   UNL     1       4.405  -1.492   0.000  1.00  0.00    -0.023 C 
BRANCH   2   3
ATOM      3  C   UNL     1       5.841  -1.060   0.000  1.00  0.00    -0.056 C 
ATOM      4  C   UNL     1       6.934  -2.087   0.000  1.00  0.00     0.044 C 
BRANCH   3   5
ATOM      5  C   UNL     1       6.185   0.401   0.000  1.00  0.00    -0.005 C 
ATOM      6  C   UNL     1       7.621   0.833   0.000  1.00  0.00     0.009 C 
ENDBRANCH   3   5
ENDBRANCH   2   3
ENDBRANCH   1   2
BRANCH   1   7
ATOM      7  C   UNL     1       1.876  -0.897   0.000  1.00  0.00    -0.019 C 
ATOM      8  C   UNL     1       1.699   0.592   0.000  1.00  0.00     0.037 C 
ATOM      9  C   UNL     1       0.674  -1.795   0.000  1.00  0.00     0.019 C 
ATOM     10  C   UNL     1       0.321   1.184   0.000  1.00  0.00     0.222 C 
ATOM     11  C   UNL     1       0.851  -3.285   0.000  1.00  0.00     0.042 C 
ATOM     12  C   UNL     1      -0.704  -1.204   0.000  1.00  0.00     0.104 C 
ATOM     13  C   UNL     1      -0.881   0.286   0.000  1.00  0.00     0.234 C 
ATOM     14  C   UNL     1      -0.351  -4.183   0.000  1.00  0.00     0.141 C 
ATOM     15  C   UNL     1      -1.906  -2.101   0.000  1.00  0.00     0.013 C 
ATOM     16  C   UNL     1      -1.187   0.217   0.000  1.00  0.00     0.329 C 
ATOM     17  C   UNL     1      -1.729  -3.591   0.000  1.00  0.00     0.011 C 
ATOM     18  C   UNL     1      -3.131  -1.236   0.000  1.00  0.00     0.343 C 
ATOM     19  O   UNL     1      -2.686   0.197   0.000  1.00  0.00    -0.298 OA
ATOM     20  C   UNL     1       2.551  -2.237   0.000  1.00  0.00     0.012 C 
ATOM     21  C   UNL     1       2.901   1.490   0.000  1.00  0.00     0.012 C 
BRANCH  10  22
ATOM     22  O   UNL     1       0.144   2.674   0.000  1.00  0.00    -0.458 OA
BRANCH  22  23
ATOM     23  C   UNL     1       1.346   3.571   0.000  1.00  0.00     0.303 C 
ATOM     24  C   UNL     1       1.169   5.061   0.000  1.00  0.00     0.139 C 
ATOM     25  O   UNL     1       2.724   2.979   0.000  1.00  0.00    -0.253 OA
ENDBRANCH  22  23
ENDBRANCH  10  22
BRANCH  13  26
ATOM     26  O   UNL     1      -2.259   0.878   0.000  1.00  0.00    -0.457 OA
BRANCH  26  27
ATOM     27  C   UNL     1      -2.436   2.367   0.000  1.00  0.00     0.303 C 
ATOM     28  C   UNL     1      -3.814   2.959   0.000  1.00  0.00     0.139 C 
ATOM     29  O   UNL     1      -1.487   3.529   0.000  1.00  0.00    -0.253 OA
ENDBRANCH  26  27
ENDBRANCH  13  26
BRANCH  14  30
ATOM     30  O   UNL     1      -0.174  -5.672   0.000  1.00  0.00    -0.377 OA
ATOM     31  C   UNL     1      -1.375  -6.570   0.000  1.00  0.00     0.195 C 
ENDBRANCH  14  30
BRANCH  16  32
ATOM     32  O   UNL     1      -0.321   1.442   0.000  1.00  0.00    -0.435 OA
BRANCH  32  33
ATOM     33  C   UNL     1      -0.950   2.804   0.000  1.00  0.00     0.304 C 
ATOM     34  C   UNL     1      -0.084   4.029   0.000  1.00  0.00     0.139 C 
ATOM     35  O   UNL     1      -2.366   3.298   0.000  1.00  0.00    -0.253 OA
ENDBRANCH  32  33
ENDBRANCH  16  32
BRANCH  18  36
ATOM     36  O   UNL     1      -4.551  -1.718   0.000  1.00  0.00    -0.432 OA
BRANCH  36  37
ATOM     37  C   UNL     1      -5.679  -0.730   0.000  1.00  0.00     0.305 C 
ATOM     38  C   UNL     1      -7.099  -1.212   0.000  1.00  0.00     0.139 C 
ATOM     39  O   UNL     1      -5.387   0.742   0.000  1.00  0.00    -0.253 OA
ENDBRANCH  36  37
ENDBRANCH  18  36
ENDBRANCH   1   7
TORSDOF 13
