REMARK SMILES COc1cc(OC)c2ccc(=O)oc2c1
REMARK SMILES IDX 3 1 4 2 5 3 8 4 9 5 10 6 11 7 12 8 13 9 14 10 15 11 2 12
REMARK SMILES IDX 1 13 6 14 7 15
REMARK H PARENT
ROOT
ATOM      1  C   UNL     1      -2.041   0.892   0.000  1.00  0.00     0.126 A 
ATOM      2  C   UNL     1      -2.108  -0.607   0.000  1.00  0.00     0.093 A 
ATOM      3  C   UNL     1      -0.843  -1.414   0.000  1.00  0.00     0.133 A 
ATOM      4  C   UNL     1       0.488  -0.723   0.000  1.00  0.00     0.060 A 
ATOM      5  C   UNL     1       1.752  -1.530   0.000  1.00  0.00     0.023 A 
ATOM      6  C   UNL     1       3.083  -0.839   0.000  1.00  0.00     0.095 A 
ATOM      7  C   UNL     1       3.150   0.660   0.000  1.00  0.00     0.336 A 
ATOM      8  O   UNL     1       4.481   1.351   0.000  1.00  0.00    -0.246 OA
ATOM      9  O   UNL     1       1.886   1.467   0.000  1.00  0.00    -0.422 OA
ATOM     10  C   UNL     1       0.555   0.776   0.000  1.00  0.00     0.145 A 
ATOM     11  C   UNL     1      -0.709   1.583   0.000  1.00  0.00     0.094 A 
ENDROOT
BRANCH   1  12
ATOM     12  O   UNL     1      -3.305   1.699   0.000  1.00  0.00    -0.496 OA
ATOM     13  C   UNL     1      -3.238   3.198   0.000  1.00  0.00     0.278 C 
ENDBRANCH   1  12
BRANCH   3  14
ATOM     14  O   UNL     1      -0.910  -2.912   0.000  1.00  0.00    -0.496 OA
ATOM     15  C   UNL     1      -2.242  -3.603   0.000  1.00  0.00     0.278 C 
ENDBRANCH   3  14
TORSDOF 2
