REMARK SMILES COc1ccc2c(=O)cc(-c3ccc(OC)c(O)c3)oc2c1
REMARK SMILES IDX 3 1 4 2 5 3 6 4 7 5 8 6 9 7 10 8 20 9 21 10 22 11 2 12 1 13
REMARK SMILES IDX 11 14 12 15 19 16 13 17 17 18 14 19 18 20 15 22 16 23
REMARK H PARENT 18 21
ROOT
ATOM      1  C   UNL     1      -4.595  -1.130   0.000  1.00  0.00     0.122 A 
ATOM      2  C   UNL     1      -5.036   0.303   0.000  1.00  0.00     0.047 A 
ATOM      3  C   UNL     1      -4.016   1.403   0.000  1.00  0.00     0.020 A 
ATOM      4  C   UNL     1      -2.553   1.068   0.000  1.00  0.00     0.065 A 
ATOM      5  C   UNL     1      -1.533   2.167   0.000  1.00  0.00     0.193 A 
ATOM      6  O   UNL     1      -1.974   3.601   0.000  1.00  0.00    -0.289 OA
ATOM      7  C   UNL     1      -0.070   1.833   0.000  1.00  0.00     0.100 A 
ATOM      8  C   UNL     1       0.371   0.400   0.000  1.00  0.00     0.138 A 
ATOM      9  O   UNL     1      -0.649  -0.700   0.000  1.00  0.00    -0.456 OA
ATOM     10  C   UNL     1      -2.112  -0.365   0.000  1.00  0.00     0.142 A 
ATOM     11  C   UNL     1      -3.132  -1.464   0.000  1.00  0.00     0.094 A 
ENDROOT
BRANCH   1  12
ATOM     12  O   UNL     1      -5.615  -2.229   0.000  1.00  0.00    -0.497 OA
ATOM     13  C   UNL     1      -7.078  -1.895   0.000  1.00  0.00     0.278 C 
ENDBRANCH   1  12
BRANCH   8  14
ATOM     14  C   UNL     1       1.833   0.066   0.000  1.00  0.00     0.021 A 
ATOM     15  C   UNL     1       2.275  -1.368   0.000  1.00  0.00     0.016 A 
ATOM     16  C   UNL     1       2.854   1.165   0.000  1.00  0.00     0.062 A 
ATOM     17  C   UNL     1       3.737  -1.702   0.000  1.00  0.00     0.051 A 
ATOM     18  C   UNL     1       4.316   0.831   0.000  1.00  0.00     0.158 A 
ATOM     19  C   UNL     1       4.758  -0.603   0.000  1.00  0.00     0.160 A 
BRANCH  18  20
ATOM     20  O   UNL     1       5.337   1.930   0.000  1.00  0.00    -0.504 OA
ATOM     21  H   UNL     1       0.000   0.000   0.000  1.00  0.00     0.293 HD
ENDBRANCH  18  20
BRANCH  19  22
ATOM     22  O   UNL     1       6.220  -0.937   0.000  1.00  0.00    -0.493 OA
ATOM     23  C   UNL     1       6.662  -2.371   0.000  1.00  0.00     0.278 C 
ENDBRANCH  19  22
ENDBRANCH   8  14
TORSDOF 4
