REMARK SMILES COc1cc2ccc(=O)oc2c(OC)c1OCC=C(C)C
REMARK SMILES IDX 16 1 15 2 3 3 4 4 5 5 12 6 11 7 6 8 10 9 7 10 8 11 9 12 2 13
REMARK SMILES IDX 1 14 13 15 14 16 17 17 18 18 19 19 20 20 21 21
REMARK H PARENT
ROOT
ATOM      1  O   UNL     1      -1.774   1.246   0.000  1.00  0.00    -0.482 OA
ENDROOT
BRANCH   1   2
ATOM      2  C   UNL     1      -0.288   1.039   0.000  1.00  0.00     0.207 A 
ATOM      3  C   UNL     1       0.634   2.223   0.000  1.00  0.00     0.165 A 
ATOM      4  C   UNL     1       2.119   2.016   0.000  1.00  0.00     0.062 A 
ATOM      5  C   UNL     1       2.683   0.626   0.000  1.00  0.00     0.025 A 
ATOM      6  C   UNL     1       0.276  -0.351   0.000  1.00  0.00     0.208 A 
ATOM      7  C   UNL     1       1.761  -0.557   0.000  1.00  0.00     0.184 A 
ATOM      8  C   UNL     1       4.169   0.419   0.000  1.00  0.00     0.020 A 
ATOM      9  O   UNL     1       2.325  -1.947   0.000  1.00  0.00    -0.419 OA
ATOM     10  C   UNL     1       4.733  -0.971   0.000  1.00  0.00     0.094 A 
ATOM     11  C   UNL     1       3.811  -2.154   0.000  1.00  0.00     0.336 A 
ATOM     12  O   UNL     1       4.375  -3.544   0.000  1.00  0.00    -0.246 OA
BRANCH   3  13
ATOM     13  O   UNL     1       0.070   3.613   0.000  1.00  0.00    -0.493 OA
ATOM     14  C   UNL     1       0.992   4.796   0.000  1.00  0.00     0.278 C 
ENDBRANCH   3  13
BRANCH   6  15
ATOM     15  O   UNL     1      -0.646  -1.534   0.000  1.00  0.00    -0.490 OA
ATOM     16  C   UNL     1      -2.132  -1.327   0.000  1.00  0.00     0.278 C 
ENDBRANCH   6  15
ENDBRANCH   1   2
BRANCH   1  17
ATOM     17  C   UNL     1      -2.696   0.063   0.000  1.00  0.00     0.257 C 
BRANCH  17  18
ATOM     18  C   UNL     1      -4.181   0.269   0.000  1.00  0.00     0.012 C 
BRANCH  18  19
ATOM     19  C   UNL     1      -5.103  -0.914   0.000  1.00  0.00    -0.077 C 
ATOM     20  C   UNL     1      -6.589  -0.707   0.000  1.00  0.00     0.039 C 
ATOM     21  C   UNL     1      -4.539  -2.304   0.000  1.00  0.00     0.039 C 
ENDBRANCH  18  19
ENDBRANCH  17  18
ENDBRANCH   1  17
TORSDOF 6
