REMARK SMILES COc1ccc(-c2cc(=O)c3c(O)cc(O)c(-c4cc(-c5cc(=O)c6c(O)cc(O)cc6o5)ccc4O)c3o2)cc1
REMARK SMILES IDX 7 1 8 2 9 3 10 4 11 5 12 6 14 7 15 8 17 9 38 10 39 11 6 12
REMARK SMILES IDX 3 13 4 14 41 15 5 16 40 17 2 18 1 19 18 20 19 21 36 22 20 23
REMARK SMILES IDX 35 24 34 25 37 26 21 28 22 29 33 30 23 31 32 32 25 33 31 34
REMARK SMILES IDX 26 35 29 36 28 37 24 38 27 39 30 41 13 43 16 45
REMARK H PARENT 37 27 27 40 30 42 13 44 16 46
ROOT
ATOM      1  C   UNL     1       4.724   0.313   0.000  1.00  0.00     0.138 A 
ATOM      2  C   UNL     1       5.577   1.547   0.000  1.00  0.00     0.100 A 
ATOM      3  C   UNL     1       4.936   2.903   0.000  1.00  0.00     0.197 A 
ATOM      4  O   UNL     1       5.789   4.136   0.000  1.00  0.00    -0.289 OA
ATOM      5  C   UNL     1       3.441   3.025   0.000  1.00  0.00     0.107 A 
ATOM      6  C   UNL     1       2.799   4.381   0.000  1.00  0.00     0.134 A 
ATOM      7  C   UNL     1       1.304   4.503   0.000  1.00  0.00     0.094 A 
ATOM      8  C   UNL     1       0.451   3.269   0.000  1.00  0.00     0.131 A 
ATOM      9  C   UNL     1       1.092   1.913   0.000  1.00  0.00     0.071 A 
ATOM     10  C   UNL     1       2.587   1.791   0.000  1.00  0.00     0.154 A 
ATOM     11  O   UNL     1       3.229   0.435   0.000  1.00  0.00    -0.455 OA
ENDROOT
BRANCH   1  12
ATOM     12  C   UNL     1       5.366  -1.042   0.000  1.00  0.00     0.018 A 
ATOM     13  C   UNL     1       6.649  -3.754   0.000  1.00  0.00     0.118 A 
ATOM     14  C   UNL     1       5.154  -3.632   0.000  1.00  0.00     0.047 A 
ATOM     15  C   UNL     1       7.503  -2.521   0.000  1.00  0.00     0.047 A 
ATOM     16  C   UNL     1       4.513  -2.276   0.000  1.00  0.00     0.016 A 
ATOM     17  C   UNL     1       6.861  -1.165   0.000  1.00  0.00     0.016 A 
BRANCH  13  18
ATOM     18  O   UNL     1       7.291  -5.110   0.000  1.00  0.00    -0.497 OA
ATOM     19  C   UNL     1       6.438  -6.344   0.000  1.00  0.00     0.278 C 
ENDBRANCH  13  18
ENDBRANCH   1  12
BRANCH   9  20
ATOM     20  C   UNL     1       0.239   0.680   0.000  1.00  0.00     0.032 A 
ATOM     21  C   UNL     1      -1.256   0.802   0.000  1.00  0.00     0.024 A 
ATOM     22  C   UNL     1       0.881  -0.676   0.000  1.00  0.00     0.123 A 
ATOM     23  C   UNL     1      -2.109  -0.432   0.000  1.00  0.00     0.018 A 
ATOM     24  C   UNL     1       0.028  -1.910   0.000  1.00  0.00     0.047 A 
ATOM     25  C   UNL     1      -1.468  -1.787   0.000  1.00  0.00     0.016 A 
BRANCH  22  26
ATOM     26  O   UNL     1       2.376  -0.798   0.000  1.00  0.00    -0.507 OA
ATOM     27  H   UNL     1       0.000   0.000   0.000  1.00  0.00     0.293 HD
ENDBRANCH  22  26
BRANCH  23  28
ATOM     28  C   UNL     1      -3.604  -0.309   0.000  1.00  0.00     0.138 A 
ATOM     29  C   UNL     1      -4.246   1.046   0.000  1.00  0.00     0.100 A 
ATOM     30  O   UNL     1      -4.458  -1.543   0.000  1.00  0.00    -0.456 OA
ATOM     31  C   UNL     1      -5.741   1.169   0.000  1.00  0.00     0.197 A 
ATOM     32  C   UNL     1      -5.953  -1.421   0.000  1.00  0.00     0.146 A 
ATOM     33  C   UNL     1      -6.594  -0.065   0.000  1.00  0.00     0.107 A 
ATOM     34  C   UNL     1      -6.806  -2.655   0.000  1.00  0.00     0.094 A 
ATOM     35  C   UNL     1      -8.089   0.057   0.000  1.00  0.00     0.134 A 
ATOM     36  C   UNL     1      -8.301  -2.532   0.000  1.00  0.00     0.123 A 
ATOM     37  C   UNL     1      -8.943  -1.177   0.000  1.00  0.00     0.093 A 
ATOM     38  O   UNL     1      -6.383   2.524   0.000  1.00  0.00    -0.289 OA
BRANCH  35  39
ATOM     39  O   UNL     1      -8.731   1.413   0.000  1.00  0.00    -0.507 OA
ATOM     40  H   UNL     1       0.000   0.000   0.000  1.00  0.00     0.293 HD
ENDBRANCH  35  39
BRANCH  36  41
ATOM     41  O   UNL     1      -9.154  -3.766   0.000  1.00  0.00    -0.508 OA
ATOM     42  H   UNL     1       0.000   0.000   0.000  1.00  0.00     0.293 HD
ENDBRANCH  36  41
ENDBRANCH  23  28
ENDBRANCH   9  20
BRANCH   6  43
ATOM     43  O   UNL     1       3.652   5.614   0.000  1.00  0.00    -0.507 OA
ATOM     44  H   UNL     1       0.000   0.000   0.000  1.00  0.00     0.293 HD
ENDBRANCH   6  43
BRANCH   8  45
ATOM     45  O   UNL     1      -1.044   3.391   0.000  1.00  0.00    -0.507 OA
ATOM     46  H   UNL     1       0.000   0.000   0.000  1.00  0.00     0.293 HD
ENDBRANCH   8  45
TORSDOF 9
