REMARK SMILES CC1=C[C@@H]2[C@@H](C(C)C)CC[C@H](C)[C@]2(O)CC1
REMARK SMILES IDX 1 1 2 2 3 3 4 4 5 5 9 6 10 7 11 8 12 9 13 10 15 11 16 12
REMARK SMILES IDX 6 13 7 14 8 15 14 16
REMARK H PARENT 14 17
ROOT
ATOM      1  C   UNL     1       1.024  -3.993   0.000  1.00  0.00     0.039 C 
ATOM      2  C   UNL     1       1.036  -2.493   0.000  1.00  0.00    -0.077 C 
ATOM      3  C   UNL     1      -0.257  -1.732   0.000  1.00  0.00    -0.021 C 
ATOM      4  C   UNL     1      -0.245  -0.233   0.000  1.00  0.00     0.047 C 
ATOM      5  C   UNL     1      -1.538   0.528   0.000  1.00  0.00     0.001 C 
ATOM      6  C   UNL     1      -1.527   2.028   0.000  1.00  0.00     0.005 C 
ATOM      7  C   UNL     1      -0.222   2.767   0.000  1.00  0.00     0.006 C 
ATOM      8  C   UNL     1       1.071   2.007   0.000  1.00  0.00     0.018 C 
ATOM      9  C   UNL     1       2.376   2.747   0.000  1.00  0.00     0.011 C 
ATOM     10  C   UNL     1       1.060   0.507   0.000  1.00  0.00     0.074 C 
ATOM     11  C   UNL     1       2.353  -0.253   0.000  1.00  0.00     0.040 C 
ATOM     12  C   UNL     1       2.341  -1.753   0.000  1.00  0.00     0.033 C 
ENDROOT
BRANCH   5  13
ATOM     13  C   UNL     1      -2.843  -0.212   0.000  1.00  0.00    -0.014 C 
ATOM     14  C   UNL     1      -4.136   0.548   0.000  1.00  0.00     0.007 C 
ATOM     15  C   UNL     1      -2.855  -1.712   0.000  1.00  0.00     0.007 C 
ENDBRANCH   5  13
BRANCH  10  16
ATOM     16  O   UNL     1       2.364   1.247   0.000  1.00  0.00    -0.389 OA
ATOM     17  H   UNL     1       0.000   0.000   0.000  1.00  0.00     0.211 HD
ENDBRANCH  10  16
TORSDOF 2
