REMARK SMILES C=C[C@@]1(C)CC[C@H]([C@@]2(C)CCCC(C)(C)[C@@H]2CC(=O)O)C(=O)C1
REMARK SMILES IDX 8 1 9 2 10 3 11 4 12 5 13 6 14 7 15 8 16 9 7 10 3 11 5 12
REMARK SMILES IDX 23 13 6 14 21 15 4 16 22 17 2 18 1 19 17 20 18 21 19 22
REMARK SMILES IDX 20 23
REMARK H PARENT 20 24
ROOT
ATOM      1  C   UNL     1      -0.409   0.275   0.000  1.00  0.00    -0.019 C 
ATOM      2  C   UNL     1      -0.286  -1.220   0.000  1.00  0.00     0.012 C 
ATOM      3  C   UNL     1      -0.013   1.722   0.000  1.00  0.00     0.008 C 
ATOM      4  C   UNL     1      -1.069   2.788   0.000  1.00  0.00     0.001 C 
ATOM      5  C   UNL     1      -2.519   2.408   0.000  1.00  0.00     0.007 C 
ATOM      6  C   UNL     1      -2.915   0.961   0.000  1.00  0.00    -0.031 C 
ATOM      7  C   UNL     1      -3.782  -0.264   0.000  1.00  0.00     0.011 C 
ATOM      8  C   UNL     1      -4.271   1.602   0.000  1.00  0.00     0.011 C 
ATOM      9  C   UNL     1      -1.860  -0.105   0.000  1.00  0.00     0.012 C 
ENDROOT
BRANCH   1  10
ATOM     10  C   UNL     1       1.084   0.137   0.000  1.00  0.00     0.062 C 
ATOM     11  C   UNL     1       4.072  -0.141   0.000  1.00  0.00    -0.008 C 
ATOM     12  C   UNL     1       3.205  -1.365   0.000  1.00  0.00     0.012 C 
ATOM     13  C   UNL     1       3.445   1.222   0.000  1.00  0.00     0.086 C 
ATOM     14  C   UNL     1       1.711  -1.226   0.000  1.00  0.00     0.013 C 
ATOM     15  C   UNL     1       1.951   1.361   0.000  1.00  0.00     0.137 C 
ATOM     16  C   UNL     1       5.305   0.713   0.000  1.00  0.00     0.016 C 
ATOM     17  O   UNL     1       1.324   2.724   0.000  1.00  0.00    -0.299 OA
BRANCH  11  18
ATOM     18  C   UNL     1       5.127  -1.207   0.000  1.00  0.00    -0.028 C 
ATOM     19  C   UNL     1       4.731  -2.654   0.000  1.00  0.00     0.004 C 
ENDBRANCH  11  18
ENDBRANCH   1  10
BRANCH   9  20
ATOM     20  C   UNL     1      -2.256  -1.552   0.000  1.00  0.00     0.127 C 
BRANCH  20  21
ATOM     21  C   UNL     1      -3.707  -1.933   0.000  1.00  0.00     0.303 C 
ATOM     22  O   UNL     1      -4.762  -0.867   0.000  1.00  0.00    -0.252 OA
BRANCH  21  23
ATOM     23  O   UNL     1      -4.103  -3.380   0.000  1.00  0.00    -0.481 OA
ATOM     24  H   UNL     1       0.000   0.000   0.000  1.00  0.00     0.296 HD
ENDBRANCH  21  23
ENDBRANCH  20  21
ENDBRANCH   9  20
TORSDOF 5
