REMARK SMILES CC1(C)C=Cc2cc3ccc(=O)oc3cc2O1
REMARK SMILES IDX 1 1 2 2 3 3 4 4 5 5 6 6 7 7 8 8 14 9 15 10 16 11 17 12 13 13
REMARK SMILES IDX 11 14 12 15 10 16 9 17
REMARK H PARENT
ROOT
ATOM      1  C   UNL     1      -4.182  -1.822   0.000  1.00  0.00     0.061 C 
ATOM      2  C   UNL     1      -3.638  -0.424   0.000  1.00  0.00     0.122 C 
ATOM      3  C   UNL     1      -5.109  -0.131   0.000  1.00  0.00     0.061 C 
ATOM      4  C   UNL     1      -3.604   1.075   0.000  1.00  0.00     0.021 C 
ATOM      5  C   UNL     1      -2.288   1.796   0.000  1.00  0.00     0.012 C 
ATOM      6  C   UNL     1      -1.007   1.017   0.000  1.00  0.00     0.017 A 
ATOM      7  C   UNL     1       0.309   1.738   0.000  1.00  0.00     0.024 A 
ATOM      8  C   UNL     1       1.591   0.959   0.000  1.00  0.00     0.018 A 
ATOM      9  C   UNL     1       1.557  -0.541   0.000  1.00  0.00     0.142 A 
ATOM     10  C   UNL     1       0.242  -1.262   0.000  1.00  0.00     0.095 A 
ATOM     11  C   UNL     1      -1.040  -0.483   0.000  1.00  0.00     0.131 A 
ATOM     12  O   UNL     1      -2.356  -1.203   0.000  1.00  0.00    -0.483 OA
ATOM     13  O   UNL     1       2.839  -1.320   0.000  1.00  0.00    -0.423 OA
ATOM     14  C   UNL     1       4.155  -0.599   0.000  1.00  0.00     0.336 A 
ATOM     15  O   UNL     1       5.436  -1.378   0.000  1.00  0.00    -0.246 OA
ATOM     16  C   UNL     1       4.188   0.900   0.000  1.00  0.00     0.094 A 
ATOM     17  C   UNL     1       2.906   1.679   0.000  1.00  0.00     0.019 A 
ENDROOT
TORSDOF 0
