REMARK SMILES COc1cc2c(c(O)c1CC(=O)C(C)C)C(=O)c1c(O)cc(C)cc1C2=O
REMARK SMILES IDX 10 1 9 2 3 3 4 4 5 5 7 6 6 7 26 8 16 9 25 10 18 11 24 12
REMARK SMILES IDX 19 13 22 14 21 15 27 16 17 17 23 18 2 19 1 20 8 21 20 23
REMARK SMILES IDX 11 25 12 26 13 27 14 28 15 29
REMARK H PARENT 8 22 20 24
ROOT
ATOM      1  C   UNL     1      -3.490  -1.026   0.000  1.00  0.00     0.119 C 
ENDROOT
BRANCH   1   2
ATOM      2  C   UNL     1      -2.145  -0.361   0.000  1.00  0.00     0.044 A 
ATOM      3  C   UNL     1      -2.048   1.135   0.000  1.00  0.00     0.126 A 
ATOM      4  C   UNL     1      -0.703   1.799   0.000  1.00  0.00     0.060 A 
ATOM      5  C   UNL     1       0.545   0.967   0.000  1.00  0.00     0.041 A 
ATOM      6  C   UNL     1      -0.897  -1.194   0.000  1.00  0.00     0.134 A 
ATOM      7  C   UNL     1       0.448  -0.530   0.000  1.00  0.00     0.076 A 
ATOM      8  C   UNL     1       1.890   1.631   0.000  1.00  0.00     0.194 C 
ATOM      9  C   UNL     1       1.695  -1.363   0.000  1.00  0.00     0.201 C 
ATOM     10  C   UNL     1       3.138   0.798   0.000  1.00  0.00     0.038 A 
ATOM     11  C   UNL     1       3.040  -0.699   0.000  1.00  0.00     0.076 A 
ATOM     12  C   UNL     1       4.483   1.462   0.000  1.00  0.00     0.016 A 
ATOM     13  C   UNL     1       4.288  -1.532   0.000  1.00  0.00     0.127 A 
ATOM     14  C   UNL     1       5.730   0.629   0.000  1.00  0.00    -0.047 A 
ATOM     15  C   UNL     1       5.633  -0.868   0.000  1.00  0.00     0.050 A 
ATOM     16  O   UNL     1       1.987   3.128   0.000  1.00  0.00    -0.289 OA
ATOM     17  O   UNL     1       1.598  -2.860   0.000  1.00  0.00    -0.288 OA
ATOM     18  C   UNL     1       7.075   1.293   0.000  1.00  0.00     0.044 C 
BRANCH   3  19
ATOM     19  O   UNL     1      -3.295   1.968   0.000  1.00  0.00    -0.496 OA
ATOM     20  C   UNL     1      -3.198   3.465   0.000  1.00  0.00     0.278 C 
ENDBRANCH   3  19
BRANCH   6  21
ATOM     21  O   UNL     1      -0.995  -2.691   0.000  1.00  0.00    -0.507 OA
ATOM     22  H   UNL     1       0.000   0.000   0.000  1.00  0.00     0.293 HD
ENDBRANCH   6  21
BRANCH  13  23
ATOM     23  O   UNL     1       4.191  -3.028   0.000  1.00  0.00    -0.507 OA
ATOM     24  H   UNL     1       0.000   0.000   0.000  1.00  0.00     0.293 HD
ENDBRANCH  13  23
ENDBRANCH   1   2
BRANCH   1  25
ATOM     25  C   UNL     1      -4.737  -0.193   0.000  1.00  0.00     0.140 C 
ATOM     26  O   UNL     1      -4.640   1.304   0.000  1.00  0.00    -0.299 OA
BRANCH  25  27
ATOM     27  C   UNL     1      -6.082  -0.857   0.000  1.00  0.00     0.050 C 
ATOM     28  C   UNL     1      -7.330  -0.024   0.000  1.00  0.00     0.015 C 
ATOM     29  C   UNL     1      -6.180  -2.354   0.000  1.00  0.00     0.015 C 
ENDBRANCH  25  27
ENDBRANCH   1  25
TORSDOF 6
