REMARK SMILES COc1cc2oc(=O)ccc2cc1C=CC(C)(C)O
REMARK SMILES IDX 14 1 13 2 3 3 4 4 5 5 12 6 11 7 6 8 10 9 7 10 9 11 8 12 2 13
REMARK SMILES IDX 1 14 15 15 16 16 17 17 18 18 19 19
REMARK H PARENT 19 20
ROOT
ATOM      1  C   UNL     1      -2.001  -0.979   0.000  1.00  0.00     0.010 C 
ENDROOT
BRANCH   1   2
ATOM      2  C   UNL     1      -0.583  -0.490   0.000  1.00  0.00     0.017 A 
ATOM      3  C   UNL     1      -0.297   0.982   0.000  1.00  0.00     0.129 A 
ATOM      4  C   UNL     1       1.121   1.471   0.000  1.00  0.00     0.094 A 
ATOM      5  C   UNL     1       2.254   0.488   0.000  1.00  0.00     0.142 A 
ATOM      6  C   UNL     1       0.550  -1.474   0.000  1.00  0.00     0.024 A 
ATOM      7  C   UNL     1       1.968  -0.985   0.000  1.00  0.00     0.018 A 
ATOM      8  O   UNL     1       3.672   0.977   0.000  1.00  0.00    -0.423 OA
ATOM      9  C   UNL     1       3.100  -1.968   0.000  1.00  0.00     0.019 A 
ATOM     10  C   UNL     1       4.804  -0.007   0.000  1.00  0.00     0.336 A 
ATOM     11  C   UNL     1       4.519  -1.479   0.000  1.00  0.00     0.094 A 
ATOM     12  O   UNL     1       6.222   0.482   0.000  1.00  0.00    -0.246 OA
BRANCH   3  13
ATOM     13  O   UNL     1      -1.429   1.966   0.000  1.00  0.00    -0.496 OA
ATOM     14  C   UNL     1      -1.144   3.439   0.000  1.00  0.00     0.278 C 
ENDBRANCH   3  13
ENDBRANCH   1   2
BRANCH   1  15
ATOM     15  C   UNL     1      -3.133   0.004   0.000  1.00  0.00     0.008 C 
BRANCH  15  16
ATOM     16  C   UNL     1      -4.551  -0.484   0.000  1.00  0.00     0.077 C 
ATOM     17  C   UNL     1      -4.062  -1.903   0.000  1.00  0.00     0.046 C 
ATOM     18  C   UNL     1      -5.040   0.934   0.000  1.00  0.00     0.046 C 
BRANCH  16  19
ATOM     19  O   UNL     1      -5.969  -0.974   0.000  1.00  0.00    -0.386 OA
ATOM     20  H   UNL     1       0.000   0.000   0.000  1.00  0.00     0.211 HD
ENDBRANCH  16  19
ENDBRANCH  15  16
ENDBRANCH   1  15
TORSDOF 5
