REMARK SMILES COc1cc2nc3occc3c(OC)c2cc1OC[C@@H](O)C(C)(C)O
REMARK SMILES IDX 19 1 18 2 17 3 3 4 4 5 5 6 16 7 6 8 15 9 7 10 12 11 11 12
REMARK SMILES IDX 8 13 10 14 9 15 2 16 1 17 13 18 14 19 20 20 21 21 22 23
REMARK SMILES IDX 23 24 24 25 25 26
REMARK H PARENT 21 22 25 27
ROOT
ATOM      1  C   UNL     1       2.976  -0.222   0.000  1.00  0.00     0.264 C 
ENDROOT
BRANCH   1   2
ATOM      2  O   UNL     1       2.336   1.135   0.000  1.00  0.00    -0.487 OA
BRANCH   2   3
ATOM      3  C   UNL     1       0.841   1.259   0.000  1.00  0.00     0.162 A 
ATOM      4  C   UNL     1       0.201   2.616   0.000  1.00  0.00     0.162 A 
ATOM      5  C   UNL     1      -1.294   2.740   0.000  1.00  0.00     0.079 A 
ATOM      6  C   UNL     1      -2.149   1.508   0.000  1.00  0.00     0.082 A 
ATOM      7  C   UNL     1      -0.014   0.026   0.000  1.00  0.00     0.064 A 
ATOM      8  N   UNL     1      -3.643   1.632   0.000  1.00  0.00    -0.212 NA
ATOM      9  C   UNL     1      -1.509   0.151   0.000  1.00  0.00     0.047 A 
ATOM     10  C   UNL     1      -4.499   0.399   0.000  1.00  0.00     0.230 A 
ATOM     11  C   UNL     1      -2.364  -1.082   0.000  1.00  0.00     0.141 A 
ATOM     12  C   UNL     1      -3.859  -0.957   0.000  1.00  0.00     0.083 A 
ATOM     13  O   UNL     1      -5.987   0.210   0.000  1.00  0.00    -0.446 OA
ATOM     14  C   UNL     1      -4.951  -1.985   0.000  1.00  0.00     0.056 A 
ATOM     15  C   UNL     1      -6.266  -1.264   0.000  1.00  0.00     0.198 A 
BRANCH   4  16
ATOM     16  O   UNL     1       1.056   3.848   0.000  1.00  0.00    -0.493 OA
ATOM     17  C   UNL     1       2.551   3.724   0.000  1.00  0.00     0.278 C 
ENDBRANCH   4  16
BRANCH  11  18
ATOM     18  O   UNL     1      -1.724  -2.438   0.000  1.00  0.00    -0.495 OA
ATOM     19  C   UNL     1      -2.579  -3.671   0.000  1.00  0.00     0.278 C 
ENDBRANCH  11  18
ENDBRANCH   2   3
ENDBRANCH   1   2
BRANCH   1  20
ATOM     20  C   UNL     1       4.471  -0.346   0.000  1.00  0.00     0.183 C 
BRANCH  20  21
ATOM     21  O   UNL     1       5.325   0.886   0.000  1.00  0.00    -0.387 OA
ATOM     22  H   UNL     1       0.000   0.000   0.000  1.00  0.00     0.211 HD
ENDBRANCH  20  21
BRANCH  20  23
ATOM     23  C   UNL     1       5.110  -1.703   0.000  1.00  0.00     0.088 C 
ATOM     24  C   UNL     1       3.753  -2.343   0.000  1.00  0.00     0.045 C 
ATOM     25  C   UNL     1       6.467  -1.063   0.000  1.00  0.00     0.045 C 
BRANCH  23  26
ATOM     26  O   UNL     1       5.750  -3.060   0.000  1.00  0.00    -0.388 OA
ATOM     27  H   UNL     1       0.000   0.000   0.000  1.00  0.00     0.211 HD
ENDBRANCH  23  26
ENDBRANCH  20  23
ENDBRANCH   1  20
TORSDOF 8
