REMARK SMILES CC(C)c1c(O)ccc2c1CC[C@H]1C(C)(C)[C@@H](O)CC[C@]21C
REMARK SMILES IDX 4 1 5 2 7 3 8 4 9 5 10 6 11 7 12 8 13 9 14 10 15 11 16 12
REMARK SMILES IDX 17 13 19 14 20 15 21 16 22 17 2 18 1 19 3 20 6 21 18 23
REMARK H PARENT 6 22 18 24
ROOT
ATOM      1  C   UNL     1      -2.816  -0.218   0.000  1.00  0.00    -0.000 A 
ATOM      2  C   UNL     1      -3.431   1.150   0.000  1.00  0.00     0.119 A 
ATOM      3  C   UNL     1      -2.554   2.367   0.000  1.00  0.00     0.047 A 
ATOM      4  C   UNL     1      -1.062   2.216   0.000  1.00  0.00     0.008 A 
ATOM      5  C   UNL     1      -0.446   0.848   0.000  1.00  0.00    -0.038 A 
ATOM      6  C   UNL     1      -1.323  -0.369   0.000  1.00  0.00    -0.037 A 
ATOM      7  C   UNL     1      -0.708  -1.737   0.000  1.00  0.00     0.036 C 
ATOM      8  C   UNL     1       0.784  -1.888   0.000  1.00  0.00     0.010 C 
ATOM      9  C   UNL     1       1.661  -0.671   0.000  1.00  0.00     0.008 C 
ATOM     10  C   UNL     1       3.154  -0.822   0.000  1.00  0.00    -0.006 C 
ATOM     11  C   UNL     1       4.505  -1.474   0.000  1.00  0.00     0.014 C 
ATOM     12  C   UNL     1       2.746  -2.265   0.000  1.00  0.00     0.014 C 
ATOM     13  C   UNL     1       4.031   0.395   0.000  1.00  0.00     0.120 C 
ATOM     14  C   UNL     1       3.415   1.763   0.000  1.00  0.00     0.033 C 
ATOM     15  C   UNL     1       1.923   1.914   0.000  1.00  0.00     0.014 C 
ATOM     16  C   UNL     1       1.046   0.697   0.000  1.00  0.00    -0.004 C 
ATOM     17  C   UNL     1       0.430   2.065   0.000  1.00  0.00     0.017 C 
ENDROOT
BRANCH   1  18
ATOM     18  C   UNL     1      -3.693  -1.435   0.000  1.00  0.00     0.017 C 
ATOM     19  C   UNL     1      -5.185  -1.284   0.000  1.00  0.00     0.012 C 
ATOM     20  C   UNL     1      -3.077  -2.803   0.000  1.00  0.00     0.012 C 
ENDBRANCH   1  18
BRANCH   2  21
ATOM     21  O   UNL     1      -4.924   1.301   0.000  1.00  0.00    -0.508 OA
ATOM     22  H   UNL     1       0.000   0.000   0.000  1.00  0.00     0.293 HD
ENDBRANCH   2  21
BRANCH  13  23
ATOM     23  O   UNL     1       5.523   0.244   0.000  1.00  0.00    -0.393 OA
ATOM     24  H   UNL     1       0.000   0.000   0.000  1.00  0.00     0.210 HD
ENDBRANCH  13  23
TORSDOF 3
