REMARK SMILES COc1cc(CCCc2ccc(O)cc2OC)ccc1O
REMARK SMILES IDX 7 1 6 2 5 3 3 4 4 5 20 6 19 7 18 8 2 9 1 10 21 11 8 13 9 14
REMARK SMILES IDX 10 15 15 16 11 17 14 18 12 19 16 20 17 21 13 22
REMARK H PARENT 21 12 13 23
ROOT
ATOM      1  C   UNL     1      -0.188  -0.176   0.000  1.00  0.00     0.010 C 
ENDROOT
BRANCH   1   2
ATOM      2  C   UNL     1       1.103  -0.942   0.000  1.00  0.00     0.036 C 
BRANCH   2   3
ATOM      3  C   UNL     1       2.410  -0.207   0.000  1.00  0.00    -0.044 A 
ATOM      4  C   UNL     1       5.008  -0.237   0.000  1.00  0.00     0.160 A 
ATOM      5  C   UNL     1       3.700  -0.972   0.000  1.00  0.00     0.054 A 
ATOM      6  C   UNL     1       5.026   1.263   0.000  1.00  0.00     0.157 A 
ATOM      7  C   UNL     1       3.735   2.028   0.000  1.00  0.00     0.050 A 
ATOM      8  C   UNL     1       2.428   1.293   0.000  1.00  0.00     0.008 A 
BRANCH   4   9
ATOM      9  O   UNL     1       6.298  -1.002   0.000  1.00  0.00    -0.493 OA
ATOM     10  C   UNL     1       6.281  -2.502   0.000  1.00  0.00     0.278 C 
ENDBRANCH   4   9
BRANCH   6  11
ATOM     11  O   UNL     1       6.333   1.998   0.000  1.00  0.00    -0.504 OA
ATOM     12  H   UNL     1       0.000   0.000   0.000  1.00  0.00     0.293 HD
ENDBRANCH   6  11
ENDBRANCH   2   3
ENDBRANCH   1   2
BRANCH   1  13
ATOM     13  C   UNL     1      -1.495  -0.911   0.000  1.00  0.00     0.040 C 
BRANCH  13  14
ATOM     14  C   UNL     1      -2.785  -0.146   0.000  1.00  0.00    -0.006 A 
ATOM     15  C   UNL     1      -2.768   1.354   0.000  1.00  0.00     0.011 A 
ATOM     16  C   UNL     1      -4.093  -0.881   0.000  1.00  0.00     0.125 A 
ATOM     17  C   UNL     1      -4.058   2.119   0.000  1.00  0.00     0.047 A 
ATOM     18  C   UNL     1      -5.383  -0.116   0.000  1.00  0.00     0.092 A 
ATOM     19  C   UNL     1      -5.366   1.384   0.000  1.00  0.00     0.119 A 
BRANCH  16  20
ATOM     20  O   UNL     1      -4.111  -2.381   0.000  1.00  0.00    -0.496 OA
ATOM     21  C   UNL     1      -5.418  -3.116   0.000  1.00  0.00     0.278 C 
ENDBRANCH  16  20
BRANCH  19  22
ATOM     22  O   UNL     1      -6.656   2.149   0.000  1.00  0.00    -0.508 OA
ATOM     23  H   UNL     1       0.000   0.000   0.000  1.00  0.00     0.293 HD
ENDBRANCH  19  22
ENDBRANCH  13  14
ENDBRANCH   1  13
TORSDOF 8
