REMARK SMILES C=C(C)C(O)COc1cc([C@H]2OC[C@H]3[C@@H]2CO[C@@H]3c2ccc3c(c2)OCO3)ccc1OC
REMARK SMILES IDX 6 1 4 2 2 3 1 4 3 5 5 6 7 8 8 9 9 10 30 11 10 12 29 13 28 14
REMARK SMILES IDX 31 15 32 16 11 17 12 18 15 19 13 20 14 21 16 22 18 23 17 24
REMARK SMILES IDX 19 25 20 26 24 27 21 28 23 29 22 30 25 31 27 32 26 33
REMARK H PARENT 5 7
ROOT
ATOM      1  C   UNL     1       5.500  -1.258   0.000  1.00  0.00     0.266 C 
ENDROOT
BRANCH   1   2
ATOM      2  C   UNL     1       6.774  -2.051   0.000  1.00  0.00     0.177 C 
BRANCH   2   3
ATOM      3  C   UNL     1       6.723  -3.550   0.000  1.00  0.00    -0.049 C 
ATOM      4  C   UNL     1       5.400  -4.256   0.000  1.00  0.00     0.010 C 
ATOM      5  C   UNL     1       7.997  -4.343   0.000  1.00  0.00     0.042 C 
ENDBRANCH   2   3
BRANCH   2   6
ATOM      6  O   UNL     1       8.097  -1.344   0.000  1.00  0.00    -0.385 OA
ATOM      7  H   UNL     1       0.000   0.000   0.000  1.00  0.00     0.211 HD
ENDBRANCH   2   6
ENDBRANCH   1   2
BRANCH   1   8
ATOM      8  O   UNL     1       5.550   0.241   0.000  1.00  0.00    -0.487 OA
BRANCH   8   9
ATOM      9  C   UNL     1       4.277   1.034   0.000  1.00  0.00     0.161 A 
ATOM     10  C   UNL     1       2.953   0.328   0.000  1.00  0.00     0.056 A 
ATOM     11  C   UNL     1       4.327   2.533   0.000  1.00  0.00     0.160 A 
ATOM     12  C   UNL     1       1.680   1.121   0.000  1.00  0.00    -0.015 A 
ATOM     13  C   UNL     1       3.053   3.326   0.000  1.00  0.00     0.051 A 
ATOM     14  C   UNL     1       1.730   2.620   0.000  1.00  0.00     0.010 A 
BRANCH  11  15
ATOM     15  O   UNL     1       5.650   3.240   0.000  1.00  0.00    -0.493 OA
ATOM     16  C   UNL     1       5.700   4.739   0.000  1.00  0.00     0.278 C 
ENDBRANCH  11  15
BRANCH  12  17
ATOM     17  C   UNL     1       0.357   0.414   0.000  1.00  0.00     0.154 C 
ATOM     18  O   UNL     1       0.150  -1.071   0.000  1.00  0.00    -0.373 OA
ATOM     19  C   UNL     1      -0.993   1.070   0.000  1.00  0.00     0.057 C 
ATOM     20  C   UNL     1      -1.326  -1.334   0.000  1.00  0.00     0.168 C 
ATOM     21  C   UNL     1      -2.033  -0.011   0.000  1.00  0.00     0.057 C 
ATOM     22  C   UNL     1      -1.699   2.393   0.000  1.00  0.00     0.168 C 
ATOM     23  C   UNL     1      -3.382   0.644   0.000  1.00  0.00     0.154 C 
ATOM     24  O   UNL     1      -3.176   2.130   0.000  1.00  0.00    -0.373 OA
BRANCH  23  25
ATOM     25  C   UNL     1      -4.705  -0.062   0.000  1.00  0.00    -0.015 A 
ATOM     26  C   UNL     1      -4.755  -1.561   0.000  1.00  0.00     0.010 A 
ATOM     27  C   UNL     1      -5.979   0.731   0.000  1.00  0.00     0.057 A 
ATOM     28  C   UNL     1      -6.079  -2.268   0.000  1.00  0.00     0.051 A 
ATOM     29  C   UNL     1      -7.302   0.025   0.000  1.00  0.00     0.166 A 
ATOM     30  C   UNL     1      -7.352  -1.475   0.000  1.00  0.00     0.165 A 
ATOM     31  O   UNL     1      -8.712   0.535   0.000  1.00  0.00    -0.454 OA
ATOM     32  O   UNL     1      -8.793  -1.890   0.000  1.00  0.00    -0.454 OA
ATOM     33  C   UNL     1      -9.634  -0.648   0.000  1.00  0.00     0.468 C 
ENDBRANCH  23  25
ENDBRANCH  12  17
ENDBRANCH   8   9
ENDBRANCH   1   8
TORSDOF 8
