REMARK SMILES CC(=O)O[C@H]1C[C@@H](C)[C@@H]2C[C@H]3OC(=O)C[C@@H]4[C@@]3(C)[C@H]([C@H](OC(C)=O)C[C@@]4(C)C(=O)[C@H]3COC(=O)C3)[C@@]2(C)C1=O
REMARK SMILES IDX 5 1 6 2 7 3 8 4 9 5 10 6 11 7 12 8 13 9 14 10 15 11 16 12
REMARK SMILES IDX 17 13 18 14 19 15 20 16 25 17 26 18 27 19 36 20 37 21 38 22
REMARK SMILES IDX 39 23 4 24 2 25 1 26 3 27 21 28 22 29 23 30 24 31 28 32
REMARK SMILES IDX 29 33 30 34 31 35 35 36 32 37 33 38 34 39
REMARK H PARENT
ROOT
ATOM      1  C   UNL     1      -4.747  -0.420   0.000  1.00  0.00     0.243 C 
ATOM      2  C   UNL     1      -5.082  -1.882   0.000  1.00  0.00     0.057 C 
ATOM      3  C   UNL     1      -3.984  -2.904   0.000  1.00  0.00    -0.006 C 
ATOM      4  C   UNL     1      -4.319  -4.365   0.000  1.00  0.00     0.008 C 
ATOM      5  C   UNL     1      -2.550  -2.463   0.000  1.00  0.00     0.009 C 
ATOM      6  C   UNL     1      -1.452  -3.484   0.000  1.00  0.00     0.050 C 
ATOM      7  C   UNL     1      -0.018  -3.043   0.000  1.00  0.00     0.183 C 
ATOM      8  O   UNL     1       1.081  -4.065   0.000  1.00  0.00    -0.462 OA
ATOM      9  C   UNL     1       2.515  -3.624   0.000  1.00  0.00     0.306 C 
ATOM     10  O   UNL     1       3.613  -4.645   0.000  1.00  0.00    -0.252 OA
ATOM     11  C   UNL     1       2.850  -2.162   0.000  1.00  0.00     0.128 C 
ATOM     12  C   UNL     1       1.751  -1.140   0.000  1.00  0.00     0.024 C 
ATOM     13  C   UNL     1       0.318  -1.581   0.000  1.00  0.00     0.016 C 
ATOM     14  C   UNL     1       0.653  -0.119   0.000  1.00  0.00     0.016 C 
ATOM     15  C   UNL     1      -0.781  -0.560   0.000  1.00  0.00     0.054 C 
ATOM     16  C   UNL     1      -0.446   0.902   0.000  1.00  0.00     0.182 C 
ATOM     17  C   UNL     1       0.988   1.343   0.000  1.00  0.00     0.060 C 
ATOM     18  C   UNL     1       2.086   0.322   0.000  1.00  0.00     0.034 C 
ATOM     19  C   UNL     1       3.468  -0.262   0.000  1.00  0.00     0.020 C 
ATOM     20  C   UNL     1      -2.215  -1.001   0.000  1.00  0.00     0.040 C 
ATOM     21  C   UNL     1      -1.880   0.461   0.000  1.00  0.00     0.020 C 
ATOM     22  C   UNL     1      -3.313   0.021   0.000  1.00  0.00     0.179 C 
ATOM     23  O   UNL     1      -2.978   1.483   0.000  1.00  0.00    -0.295 OA
ENDROOT
BRANCH   1  24
ATOM     24  O   UNL     1      -5.846   0.601   0.000  1.00  0.00    -0.455 OA
BRANCH  24  25
ATOM     25  C   UNL     1      -5.511   2.063   0.000  1.00  0.00     0.303 C 
ATOM     26  C   UNL     1      -6.609   3.085   0.000  1.00  0.00     0.139 C 
ATOM     27  O   UNL     1      -4.077   2.504   0.000  1.00  0.00    -0.253 OA
ENDBRANCH  24  25
ENDBRANCH   1  24
BRANCH  16  28
ATOM     28  O   UNL     1      -1.544   1.923   0.000  1.00  0.00    -0.462 OA
BRANCH  28  29
ATOM     29  C   UNL     1      -1.209   3.386   0.000  1.00  0.00     0.302 C 
ATOM     30  C   UNL     1      -2.308   4.407   0.000  1.00  0.00     0.139 C 
ATOM     31  O   UNL     1       0.224   3.826   0.000  1.00  0.00    -0.253 OA
ENDBRANCH  28  29
ENDBRANCH  16  28
BRANCH  18  32
ATOM     32  C   UNL     1       2.901   1.581   0.000  1.00  0.00     0.146 C 
ATOM     33  O   UNL     1       2.218   2.916   0.000  1.00  0.00    -0.299 OA
BRANCH  32  34
ATOM     34  C   UNL     1       4.399   1.505   0.000  1.00  0.00     0.105 C 
ATOM     35  C   UNL     1       5.342   2.672   0.000  1.00  0.00     0.245 C 
ATOM     36  C   UNL     1       5.218   0.248   0.000  1.00  0.00     0.137 C 
ATOM     37  O   UNL     1       6.743   2.136   0.000  1.00  0.00    -0.465 OA
ATOM     38  C   UNL     1       6.667   0.638   0.000  1.00  0.00     0.306 C 
ATOM     39  O   UNL     1       7.834  -0.304   0.000  1.00  0.00    -0.252 OA
ENDBRANCH  32  34
ENDBRANCH  18  32
TORSDOF 6
