REMARK SMILES C=C[C@]1(C)CC2CC[C@@]34O[C@]3(C=CC(=O)C4(C)C)[C@]2(C)[C@@H](OC(C)=O)C1
REMARK SMILES IDX 3 1 4 2 5 3 6 4 7 5 8 6 9 7 10 8 11 9 12 10 13 11 14 12
REMARK SMILES IDX 15 13 16 14 17 15 18 16 19 17 20 18 21 19 26 20 2 21 1 22
REMARK SMILES IDX 22 23 23 24 24 25 25 26
REMARK H PARENT
ROOT
ATOM      1  C   UNL     1      -3.389   0.996   0.000  1.00  0.00    -0.011 C 
ATOM      2  C   UNL     1      -4.731   0.326   0.000  1.00  0.00     0.016 C 
ATOM      3  C   UNL     1      -2.357   2.084   0.000  1.00  0.00     0.015 C 
ATOM      4  C   UNL     1      -0.898   1.735   0.000  1.00  0.00     0.003 C 
ATOM      5  C   UNL     1       0.134   2.824   0.000  1.00  0.00     0.007 C 
ATOM      6  C   UNL     1       1.593   2.474   0.000  1.00  0.00     0.040 C 
ATOM      7  C   UNL     1       2.019   1.036   0.000  1.00  0.00     0.115 C 
ATOM      8  O   UNL     1       2.446  -0.402   0.000  1.00  0.00    -0.356 OA
ATOM      9  C   UNL     1       0.988  -0.052   0.000  1.00  0.00     0.127 C 
ATOM     10  C   UNL     1       1.414  -1.490   0.000  1.00  0.00     0.015 C 
ATOM     11  C   UNL     1       2.873  -1.839   0.000  1.00  0.00     0.047 C 
ATOM     12  C   UNL     1       3.905  -0.751   0.000  1.00  0.00     0.164 C 
ATOM     13  O   UNL     1       5.364  -1.100   0.000  1.00  0.00    -0.294 OA
ATOM     14  C   UNL     1       3.478   0.687   0.000  1.00  0.00     0.060 C 
ATOM     15  C   UNL     1       3.569   2.184   0.000  1.00  0.00     0.023 C 
ATOM     16  C   UNL     1       4.968   0.858   0.000  1.00  0.00     0.023 C 
ATOM     17  C   UNL     1      -0.471   0.297   0.000  1.00  0.00     0.043 C 
ATOM     18  C   UNL     1      -0.044  -1.141   0.000  1.00  0.00     0.019 C 
ATOM     19  C   UNL     1      -1.503  -0.791   0.000  1.00  0.00     0.187 C 
ATOM     20  C   UNL     1      -2.962  -0.442   0.000  1.00  0.00     0.057 C 
ENDROOT
BRANCH   1  21
ATOM     21  C   UNL     1      -4.282   2.201   0.000  1.00  0.00    -0.028 C 
ATOM     22  C   UNL     1      -3.684   3.577   0.000  1.00  0.00     0.004 C 
ENDBRANCH   1  21
BRANCH  19  23
ATOM     23  O   UNL     1      -1.076  -2.229   0.000  1.00  0.00    -0.462 OA
BRANCH  23  24
ATOM     24  C   UNL     1      -2.108  -3.318   0.000  1.00  0.00     0.302 C 
ATOM     25  C   UNL     1      -1.681  -4.756   0.000  1.00  0.00     0.139 C 
ATOM     26  O   UNL     1      -3.567  -2.969   0.000  1.00  0.00    -0.253 OA
ENDBRANCH  23  24
ENDBRANCH  19  23
TORSDOF 3
