REMARK SMILES C=C/C(C)=C\C[C@]1(C)[C@H](C)[C@@H](OC(=O)CCC)[C@H](O)[C@@]23C(=C[C@H](O)C[C@@H]12)[C@@H](OC(=O)CCC)O[C@H]3OC(C)=O
REMARK SMILES IDX 7 1 8 2 9 3 10 4 11 5 18 6 20 7 21 8 22 9 23 10 25 11 26 12
REMARK SMILES IDX 27 13 34 14 35 15 6 16 5 17 3 18 4 19 2 20 1 21 12 22 13 23
REMARK SMILES IDX 14 24 15 25 16 26 17 27 19 28 24 30 36 32 37 33 38 34 39 35
REMARK SMILES IDX 28 36 29 37 30 38 31 39 32 40 33 41
REMARK H PARENT 19 29 24 31
ROOT
ATOM      1  C   UNL     1       1.654  -1.387   0.000  1.00  0.00    -0.019 C 
ATOM      2  C   UNL     1       2.057  -2.832   0.000  1.00  0.00     0.012 C 
ATOM      3  C   UNL     1       1.770   0.108   0.000  1.00  0.00     0.036 C 
ATOM      4  C   UNL     1       3.124   0.755   0.000  1.00  0.00     0.012 C 
ATOM      5  C   UNL     1       0.533   0.957   0.000  1.00  0.00     0.209 C 
ATOM      6  C   UNL     1      -0.820   0.309   0.000  1.00  0.00     0.172 C 
ATOM      7  C   UNL     1      -0.936  -1.186   0.000  1.00  0.00     0.093 C 
ATOM      8  C   UNL     1      -2.289  -1.833   0.000  1.00  0.00     0.012 C 
ATOM      9  C   UNL     1      -2.405  -3.329   0.000  1.00  0.00     0.011 C 
ATOM     10  C   UNL     1      -1.168  -4.177   0.000  1.00  0.00     0.137 C 
ATOM     11  C   UNL     1       0.185  -3.530   0.000  1.00  0.00     0.041 C 
ATOM     12  C   UNL     1       0.301  -2.034   0.000  1.00  0.00     0.018 C 
ATOM     13  C   UNL     1      -1.775  -2.038   0.000  1.00  0.00     0.343 C 
ATOM     14  O   UNL     1      -1.702  -1.322   0.000  1.00  0.00    -0.298 OA
ATOM     15  C   UNL     1      -1.099  -1.714   0.000  1.00  0.00     0.328 C 
ENDROOT
BRANCH   1  16
ATOM     16  C   UNL     1       3.147  -1.242   0.000  1.00  0.00     0.035 C 
BRANCH  16  17
ATOM     17  C   UNL     1       4.020  -2.462   0.000  1.00  0.00    -0.023 C 
BRANCH  17  18
ATOM     18  C   UNL     1       5.513  -2.317   0.000  1.00  0.00    -0.056 C 
ATOM     19  C   UNL     1       6.385  -3.537   0.000  1.00  0.00     0.044 C 
BRANCH  18  20
ATOM     20  C   UNL     1       6.133  -0.951   0.000  1.00  0.00    -0.005 C 
ATOM     21  C   UNL     1       7.626  -0.806   0.000  1.00  0.00     0.009 C 
ENDBRANCH  18  20
ENDBRANCH  17  18
ENDBRANCH  16  17
ENDBRANCH   1  16
BRANCH   5  22
ATOM     22  O   UNL     1       0.650   2.452   0.000  1.00  0.00    -0.459 OA
BRANCH  22  23
ATOM     23  C   UNL     1       2.003   3.099   0.000  1.00  0.00     0.306 C 
ATOM     24  O   UNL     1       3.240   2.251   0.000  1.00  0.00    -0.252 OA
BRANCH  23  25
ATOM     25  C   UNL     1       2.119   4.595   0.000  1.00  0.00     0.122 C 
BRANCH  25  26
ATOM     26  C   UNL     1       3.472   5.242   0.000  1.00  0.00     0.008 C 
ATOM     27  C   UNL     1       3.588   6.737   0.000  1.00  0.00     0.004 C 
ENDBRANCH  25  26
ENDBRANCH  23  25
ENDBRANCH  22  23
ENDBRANCH   5  22
BRANCH   6  28
ATOM     28  O   UNL     1      -1.815   1.432   0.000  1.00  0.00    -0.388 OA
ATOM     29  H   UNL     1       0.000   0.000   0.000  1.00  0.00     0.211 HD
ENDBRANCH   6  28
BRANCH  10  30
ATOM     30  O   UNL     1      -1.284  -5.673   0.000  1.00  0.00    -0.389 OA
ATOM     31  H   UNL     1       0.000   0.000   0.000  1.00  0.00     0.211 HD
ENDBRANCH  10  30
BRANCH  15  32
ATOM     32  O   UNL     1      -0.046   1.335   0.000  1.00  0.00    -0.435 OA
BRANCH  32  33
ATOM     33  C   UNL     1      -0.398   2.793   0.000  1.00  0.00     0.304 C 
ATOM     34  C   UNL     1       0.689   3.826   0.000  1.00  0.00     0.139 C 
ATOM     35  O   UNL     1      -1.837   3.217   0.000  1.00  0.00    -0.253 OA
ENDBRANCH  32  33
ENDBRANCH  15  32
BRANCH  13  36
ATOM     36  O   UNL     1      -4.810  -0.944   0.000  1.00  0.00    -0.431 OA
BRANCH  36  37
ATOM     37  C   UNL     1      -5.724   0.246   0.000  1.00  0.00     0.308 C 
ATOM     38  O   UNL     1      -5.152   1.632   0.000  1.00  0.00    -0.252 OA
BRANCH  37  39
ATOM     39  C   UNL     1      -7.211   0.048   0.000  1.00  0.00     0.122 C 
BRANCH  39  40
ATOM     40  C   UNL     1      -8.126   1.237   0.000  1.00  0.00     0.008 C 
ATOM     41  C   UNL     1      -9.612   1.040   0.000  1.00  0.00     0.004 C 
ENDBRANCH  39  40
ENDBRANCH  37  39
ENDBRANCH  36  37
ENDBRANCH  13  36
TORSDOF 16
