REMARK SMILES CC=C1CN(C)C2Cc3c([nH]c4ccccc34)C(=O)C[C@@H]1C2CO
REMARK SMILES IDX 3 1 4 2 5 3 6 4 7 5 21 6 22 7 2 8 1 9 20 10 23 12 24 13 8 15
REMARK SMILES IDX 9 16 10 17 17 18 11 19 16 20 12 21 15 22 13 23 14 24 18 26
REMARK SMILES IDX 19 27
REMARK H PARENT 24 14 11 25
REMARK Flexibility Score:   40.900
ROOT
ATOM      1  C   UNL     1      -3.505  -0.423   0.000  1.00  0.00    -0.056 C 
ATOM      2  C   UNL     1      -3.604   1.074   0.000  1.00  0.00     0.115 C 
ATOM      3  N   UNL     1      -2.358   1.908   0.000  1.00  0.00    -0.299 NA
ATOM      4  C   UNL     1      -2.457   3.405   0.000  1.00  0.00     0.106 C 
ATOM      5  C   UNL     1      -0.935   1.401   0.000  1.00  0.00     0.067 C 
ATOM      6  C   UNL     1      -2.160  -1.085   0.000  1.00  0.00     0.031 C 
ATOM      7  C   UNL     1      -2.062   0.411   0.000  1.00  0.00     0.040 C 
ENDROOT
BRANCH   1   8
ATOM      8  C   UNL     1      -4.752  -1.257   0.000  1.00  0.00    -0.030 C 
ATOM      9  C   UNL     1      -4.653  -2.754   0.000  1.00  0.00     0.035 C 
ENDBRANCH   1   8
BRANCH   6  10
ATOM     10  C   UNL     1      -1.170  -2.213   0.000  1.00  0.00     0.091 CG0
ATOM     11  G   UNL     1       0.327  -2.310   0.000  1.00  0.00     0.000 G0
ENDBRANCH   6  10
BRANCH   7  12
ATOM     12  C   UNL     1      -3.408   1.074   0.000  1.00  0.00     0.161 C 
BRANCH  12  13
ATOM     13  O   UNL     1      -3.507   2.571   0.000  1.00  0.00    -0.396 OA
ATOM     14  H   UNL     1       0.000   0.000   0.000  1.00  0.00     0.210 HD
ENDBRANCH  12  13
ENDBRANCH   7  12
BRANCH   5  15
ATOM     15  C   UNL     1       0.561   1.304   0.000  1.00  0.00     0.058 C 
BRANCH  15  16
ATOM     16  C   UNL     1       1.551   0.177   0.000  1.00  0.00    -0.010 A 
ATOM     17  C   UNL     1       1.454  -1.320   0.000  1.00  0.00     0.086 A 
ATOM     18  C   UNL     1       3.005   0.547   0.000  1.00  0.00     0.003 A 
ATOM     19  N   UNL     1       2.848  -1.875   0.000  1.00  0.00    -0.352 N 
ATOM     20  C   UNL     1       3.702   1.875   0.000  1.00  0.00     0.010 A 
ATOM     21  C   UNL     1       3.806  -0.721   0.000  1.00  0.00     0.046 A 
ATOM     22  C   UNL     1       5.201   1.935   0.000  1.00  0.00     0.001 A 
ATOM     23  C   UNL     1       5.305  -0.661   0.000  1.00  0.00     0.027 A 
ATOM     24  C   UNL     1       6.002   0.667   0.000  1.00  0.00     0.002 A 
ATOM     25  H   UNL     1       0.000   0.000   0.000  1.00  0.00     0.167 HD
BRANCH  17  26
ATOM     26  C   UNL     1       0.327  -2.310   0.000  1.00  0.00     0.179 CG0
ATOM     27  O   UNL     1       0.810  -3.730   0.000  1.00  0.00    -0.293 OA
ATOM     28  G   UNL     1      -1.170  -2.213   0.000  1.00  0.00     0.000 G0
ENDBRANCH  17  26
ENDBRANCH  15  16
ENDBRANCH   5  15
TORSDOF 3
