REMARK SMILES COc1ccc(CC=CC=CC(=O)NCC(C)C)cc1
REMARK SMILES IDX 9 1 8 2 7 3 6 4 3 5 4 6 20 7 5 8 19 9 2 10 1 11 10 12 11 13
REMARK SMILES IDX 12 14 14 15 13 16 15 18 16 19 17 20 18 21
REMARK H PARENT 14 17
ROOT
ATOM      1  C   UNL     1       0.307   0.907   0.000  1.00  0.00    -0.004 C 
ENDROOT
BRANCH   1   2
ATOM      2  C   UNL     1      -1.073   0.320   0.000  1.00  0.00    -0.022 C 
BRANCH   2   3
ATOM      3  C   UNL     1      -2.271   1.223   0.000  1.00  0.00     0.062 C 
BRANCH   3   4
ATOM      4  C   UNL     1      -3.652   0.636   0.000  1.00  0.00    -0.044 A 
ATOM      5  C   UNL     1      -6.413  -0.537   0.000  1.00  0.00     0.118 A 
ATOM      6  C   UNL     1      -6.231   0.952   0.000  1.00  0.00     0.046 A 
ATOM      7  C   UNL     1      -5.215  -1.439   0.000  1.00  0.00     0.046 A 
ATOM      8  C   UNL     1      -4.850   1.539   0.000  1.00  0.00     0.008 A 
ATOM      9  C   UNL     1      -3.834  -0.853   0.000  1.00  0.00     0.008 A 
BRANCH   5  10
ATOM     10  O   UNL     1      -7.794  -1.123   0.000  1.00  0.00    -0.497 OA
ATOM     11  C   UNL     1      -8.992  -0.221   0.000  1.00  0.00     0.278 C 
ENDBRANCH   5  10
ENDBRANCH   3   4
ENDBRANCH   2   3
ENDBRANCH   1   2
BRANCH   1  12
ATOM     12  C   UNL     1       1.506   0.004   0.000  1.00  0.00     0.005 C 
BRANCH  12  13
ATOM     13  C   UNL     1       2.886   0.591   0.000  1.00  0.00     0.071 C 
BRANCH  13  14
ATOM     14  C   UNL     1       4.084  -0.311   0.000  1.00  0.00     0.243 C 
ATOM     15  N   UNL     1       5.465   0.275   0.000  1.00  0.00    -0.352 N 
ATOM     16  O   UNL     1       3.902  -1.800   0.000  1.00  0.00    -0.270 OA
ATOM     17  H   UNL     1       0.000   0.000   0.000  1.00  0.00     0.163 HD
BRANCH  15  18
ATOM     18  C   UNL     1       6.663  -0.627   0.000  1.00  0.00     0.119 C 
BRANCH  18  19
ATOM     19  C   UNL     1       8.044  -0.041   0.000  1.00  0.00     0.002 C 
ATOM     20  C   UNL     1       9.242  -0.943   0.000  1.00  0.00     0.009 C 
ATOM     21  C   UNL     1       8.226   1.448   0.000  1.00  0.00     0.009 C 
ENDBRANCH  18  19
ENDBRANCH  15  18
ENDBRANCH  13  14
ENDBRANCH  12  13
ENDBRANCH   1  12
TORSDOF 9
