REMARK SMILES O=c1cc(-c2ccc(O)c(O)c2)oc2cc(O)ccc12
REMARK SMILES IDX 1 1 2 2 3 3 4 4 13 5 14 6 15 7 16 8 18 9 19 10 20 11 5 12
REMARK SMILES IDX 6 13 12 14 7 15 10 16 8 17 11 18 9 20 17 22
REMARK H PARENT 11 19 9 21 17 23
ROOT
ATOM      1  O   UNL     1       2.307   3.419   0.000  1.00  0.00    -0.289 OA
ATOM      2  C   UNL     1       1.718   2.039   0.000  1.00  0.00     0.193 A 
ATOM      3  C   UNL     1       0.229   1.859   0.000  1.00  0.00     0.100 A 
ATOM      4  C   UNL     1      -0.360   0.480   0.000  1.00  0.00     0.138 A 
ATOM      5  O   UNL     1       0.540  -0.720   0.000  1.00  0.00    -0.456 OA
ATOM      6  C   UNL     1       2.029  -0.540   0.000  1.00  0.00     0.142 A 
ATOM      7  C   UNL     1       2.930  -1.740   0.000  1.00  0.00     0.094 A 
ATOM      8  C   UNL     1       4.419  -1.560   0.000  1.00  0.00     0.119 A 
ATOM      9  C   UNL     1       5.008  -0.180   0.000  1.00  0.00     0.047 A 
ATOM     10  C   UNL     1       4.107   1.020   0.000  1.00  0.00     0.020 A 
ATOM     11  C   UNL     1       2.618   0.840   0.000  1.00  0.00     0.065 A 
ENDROOT
BRANCH   4  12
ATOM     12  C   UNL     1      -1.849   0.300   0.000  1.00  0.00     0.021 A 
ATOM     13  C   UNL     1      -2.750   1.500   0.000  1.00  0.00     0.016 A 
ATOM     14  C   UNL     1      -2.438  -1.080   0.000  1.00  0.00     0.062 A 
ATOM     15  C   UNL     1      -4.239   1.320   0.000  1.00  0.00     0.051 A 
ATOM     16  C   UNL     1      -3.927  -1.260   0.000  1.00  0.00     0.158 A 
ATOM     17  C   UNL     1      -4.828  -0.060   0.000  1.00  0.00     0.157 A 
BRANCH  16  18
ATOM     18  O   UNL     1      -4.516  -2.639   0.000  1.00  0.00    -0.504 OA
ATOM     19  H   UNL     1       0.000   0.000   0.000  1.00  0.00     0.293 HD
ENDBRANCH  16  18
BRANCH  17  20
ATOM     20  O   UNL     1      -6.317  -0.240   0.000  1.00  0.00    -0.504 OA
ATOM     21  H   UNL     1       0.000   0.000   0.000  1.00  0.00     0.293 HD
ENDBRANCH  17  20
ENDBRANCH   4  12
BRANCH   8  22
ATOM     22  O   UNL     1       5.319  -2.760   0.000  1.00  0.00    -0.508 OA
ATOM     23  H   UNL     1       0.000   0.000   0.000  1.00  0.00     0.293 HD
ENDBRANCH   8  22
TORSDOF 4
