REMARK SMILES C=C1CC[C@H]2[C@@](C)(CO)CCC[C@]2(C)[C@H]1CC/C(C)=C/C(=O)O
REMARK SMILES IDX 17 1 16 2 15 3 2 4 3 5 4 6 13 7 5 8 12 9 6 10 11 11 10 12
REMARK SMILES IDX 1 13 14 14 7 15 8 16 9 17 18 19 19 20 20 21 21 22 22 23
REMARK SMILES IDX 23 24
REMARK H PARENT 9 18 23 25
ROOT
ATOM      1  C   UNL     1      -2.411  -0.511   0.000  1.00  0.00     0.031 C 
ENDROOT
BRANCH   1   2
ATOM      2  C   UNL     1      -1.148   0.298   0.000  1.00  0.00     0.013 C 
BRANCH   2   3
ATOM      3  C   UNL     1       0.184  -0.391   0.000  1.00  0.00     0.021 C 
ATOM      4  C   UNL     1       0.253  -1.889   0.000  1.00  0.00    -0.074 C 
ATOM      5  C   UNL     1       1.586  -2.579   0.000  1.00  0.00     0.031 C 
ATOM      6  C   UNL     1       2.849  -1.770   0.000  1.00  0.00     0.009 C 
ATOM      7  C   UNL     1       1.447   0.418   0.000  1.00  0.00    -0.023 C 
ATOM      8  C   UNL     1       2.779  -0.271   0.000  1.00  0.00     0.004 C 
ATOM      9  C   UNL     1       1.378   1.917   0.000  1.00  0.00     0.008 C 
ATOM     10  C   UNL     1       4.042   0.538   0.000  1.00  0.00    -0.006 C 
ATOM     11  C   UNL     1       2.641   2.726   0.000  1.00  0.00     0.001 C 
ATOM     12  C   UNL     1       3.973   2.036   0.000  1.00  0.00     0.009 C 
ATOM     13  C   UNL     1      -1.010  -2.699   0.000  1.00  0.00     0.008 C 
ATOM     14  C   UNL     1       0.115   1.107   0.000  1.00  0.00     0.012 C 
ATOM     15  C   UNL     1       5.506   0.866   0.000  1.00  0.00     0.014 C 
BRANCH  10  16
ATOM     16  C   UNL     1       4.620  -0.846   0.000  1.00  0.00     0.163 C 
BRANCH  16  17
ATOM     17  O   UNL     1       6.108  -1.038   0.000  1.00  0.00    -0.396 OA
ATOM     18  H   UNL     1       0.000   0.000   0.000  1.00  0.00     0.210 HD
ENDBRANCH  16  17
ENDBRANCH  10  16
ENDBRANCH   2   3
ENDBRANCH   1   2
BRANCH   1  19
ATOM     19  C   UNL     1      -3.744   0.178   0.000  1.00  0.00    -0.066 C 
ATOM     20  C   UNL     1      -3.813   1.677   0.000  1.00  0.00     0.040 C 
BRANCH  19  21
ATOM     21  C   UNL     1      -5.006  -0.631   0.000  1.00  0.00     0.092 C 
BRANCH  21  22
ATOM     22  C   UNL     1      -6.339   0.058   0.000  1.00  0.00     0.328 C 
ATOM     23  O   UNL     1      -6.408   1.557   0.000  1.00  0.00    -0.247 OA
BRANCH  22  24
ATOM     24  O   UNL     1      -7.602  -0.751   0.000  1.00  0.00    -0.478 OA
ATOM     25  H   UNL     1       0.000   0.000   0.000  1.00  0.00     0.297 HD
ENDBRANCH  22  24
ENDBRANCH  21  22
ENDBRANCH  19  21
ENDBRANCH   1  19
TORSDOF 8
