REMARK SMILES COc1cc2c(cc1OC)[C@]13C[C@@H](OC)C=CC1=CCN3CC2
REMARK SMILES IDX 3 1 4 2 5 3 6 4 7 5 8 6 11 7 12 8 13 9 16 10 17 11 18 12
REMARK SMILES IDX 19 13 20 14 21 15 22 16 23 17 2 18 1 19 9 20 10 21 14 22
REMARK SMILES IDX 15 23
REMARK H PARENT
ROOT
ATOM      1  C   UNL     1       2.325  -0.962   0.000  1.00  0.00     0.161 A 
ATOM      2  C   UNL     1       1.315  -2.071   0.000  1.00  0.00     0.054 A 
ATOM      3  C   UNL     1      -0.151  -1.750   0.000  1.00  0.00    -0.037 A 
ATOM      4  C   UNL     1      -0.606  -0.321   0.000  1.00  0.00    -0.016 A 
ATOM      5  C   UNL     1       0.404   0.788   0.000  1.00  0.00     0.056 A 
ATOM      6  C   UNL     1       1.869   0.468   0.000  1.00  0.00     0.161 A 
ATOM      7  C   UNL     1      -2.072  -0.001   0.000  1.00  0.00     0.075 C 
ATOM      8  C   UNL     1      -0.918   0.599   0.000  1.00  0.00     0.069 C 
ATOM      9  C   UNL     1      -0.514   1.289   0.000  1.00  0.00     0.143 C 
ATOM     10  C   UNL     1      -0.911   1.984   0.000  1.00  0.00     0.005 C 
ATOM     11  C   UNL     1      -1.711   1.989   0.000  1.00  0.00     0.004 C 
ATOM     12  C   UNL     1      -2.814   1.302   0.000  1.00  0.00    -0.026 C 
ATOM     13  C   UNL     1      -4.283   0.999   0.000  1.00  0.00    -0.006 C 
ATOM     14  C   UNL     1      -4.449  -0.492   0.000  1.00  0.00     0.113 C 
ATOM     15  N   UNL     1      -3.082  -1.110   0.000  1.00  0.00    -0.286 NA
ATOM     16  C   UNL     1      -2.626  -2.539   0.000  1.00  0.00     0.091 C 
ATOM     17  C   UNL     1      -1.161  -2.860   0.000  1.00  0.00     0.051 C 
ENDROOT
BRANCH   1  18
ATOM     18  O   UNL     1       3.790  -1.282   0.000  1.00  0.00    -0.493 OA
ATOM     19  C   UNL     1       4.245  -2.711   0.000  1.00  0.00     0.278 C 
ENDBRANCH   1  18
BRANCH   6  20
ATOM     20  O   UNL     1       2.879   1.577   0.000  1.00  0.00    -0.493 OA
ATOM     21  C   UNL     1       4.344   1.257   0.000  1.00  0.00     0.278 C 
ENDBRANCH   6  20
BRANCH   9  22
ATOM     22  O   UNL     1       1.685   1.277   0.000  1.00  0.00    -0.377 OA
ATOM     23  C   UNL     1       2.443   2.572   0.000  1.00  0.00     0.195 C 
ENDBRANCH   9  22
TORSDOF 3
