REMARK SMILES COC(=O)[C@]12CC[C@@H](C)[C@@](C)(O)C1C1=CCC3[C@@]4(C)CC[C@H](O)C(CO)(CO)C4CC[C@@]3(C)[C@]1(C)CC2
REMARK SMILES IDX 5 1 6 2 7 3 8 4 9 5 10 6 11 7 13 8 14 9 15 10 16 11 17 12
REMARK SMILES IDX 18 13 19 14 20 15 21 16 22 17 24 18 29 19 30 20 31 21 32 22
REMARK SMILES IDX 33 23 34 24 35 25 36 26 37 27 3 28 4 29 2 30 1 31 12 32
REMARK SMILES IDX 25 34 26 35 27 37 28 38 23 40
REMARK H PARENT 12 33 26 36 28 39 23 41
ROOT
ATOM      1  C   UNL     1       3.628  -0.629   0.000  1.00  0.00     0.077 C 
ATOM      2  C   UNL     1       5.127  -0.687   0.000  1.00  0.00     0.020 C 
ATOM      3  C   UNL     1       5.927   0.582   0.000  1.00  0.00     0.007 C 
ATOM      4  C   UNL     1       5.227   1.909   0.000  1.00  0.00     0.018 C 
ATOM      5  C   UNL     1       6.027   3.178   0.000  1.00  0.00     0.011 C 
ATOM      6  C   UNL     1       3.728   1.967   0.000  1.00  0.00     0.072 C 
ATOM      7  C   UNL     1       2.340   2.534   0.000  1.00  0.00     0.043 C 
ATOM      8  C   UNL     1       2.929   0.698   0.000  1.00  0.00     0.064 C 
ATOM      9  C   UNL     1       1.430   0.755   0.000  1.00  0.00    -0.061 C 
ATOM     10  C   UNL     1       0.731   2.082   0.000  1.00  0.00    -0.026 C 
ATOM     11  C   UNL     1      -0.768   2.140   0.000  1.00  0.00     0.032 C 
ATOM     12  C   UNL     1      -1.568   0.871   0.000  1.00  0.00     0.006 C 
ATOM     13  C   UNL     1      -3.067   0.929   0.000  1.00  0.00    -0.025 C 
ATOM     14  C   UNL     1      -2.267   2.198   0.000  1.00  0.00     0.012 C 
ATOM     15  C   UNL     1      -3.766   2.256   0.000  1.00  0.00     0.010 C 
ATOM     16  C   UNL     1      -5.265   2.313   0.000  1.00  0.00     0.033 C 
ATOM     17  C   UNL     1      -6.064   1.044   0.000  1.00  0.00     0.125 C 
ATOM     18  C   UNL     1      -5.365  -0.283   0.000  1.00  0.00     0.046 C 
ATOM     19  C   UNL     1      -3.866  -0.341   0.000  1.00  0.00     0.009 C 
ATOM     20  C   UNL     1      -3.167  -1.668   0.000  1.00  0.00     0.005 C 
ATOM     21  C   UNL     1      -1.668  -1.725   0.000  1.00  0.00     0.008 C 
ATOM     22  C   UNL     1      -0.868  -0.456   0.000  1.00  0.00    -0.020 C 
ATOM     23  C   UNL     1      -0.169  -1.783   0.000  1.00  0.00     0.012 C 
ATOM     24  C   UNL     1       0.631  -0.514   0.000  1.00  0.00    -0.006 C 
ATOM     25  C   UNL     1       2.130  -0.572   0.000  1.00  0.00     0.017 C 
ATOM     26  C   UNL     1       1.330  -1.841   0.000  1.00  0.00     0.013 C 
ATOM     27  C   UNL     1       2.829  -1.899   0.000  1.00  0.00     0.020 C 
ENDROOT
BRANCH   1  28
ATOM     28  C   UNL     1       4.328  -1.956   0.000  1.00  0.00     0.312 C 
ATOM     29  O   UNL     1       3.528  -3.226   0.000  1.00  0.00    -0.252 OA
BRANCH  28  30
ATOM     30  O   UNL     1       5.827  -2.014   0.000  1.00  0.00    -0.469 OA
ATOM     31  C   UNL     1       6.526  -3.341   0.000  1.00  0.00     0.282 C 
ENDBRANCH  28  30
ENDBRANCH   1  28
BRANCH   6  32
ATOM     32  O   UNL     1       4.046   3.433   0.000  1.00  0.00    -0.389 OA
ATOM     33  H   UNL     1       0.000   0.000   0.000  1.00  0.00     0.211 HD
ENDBRANCH   6  32
BRANCH  18  34
ATOM     34  C   UNL     1      -5.162  -1.769   0.000  1.00  0.00     0.168 C 
BRANCH  34  35
ATOM     35  O   UNL     1      -3.773  -2.336   0.000  1.00  0.00    -0.396 OA
ATOM     36  H   UNL     1       0.000   0.000   0.000  1.00  0.00     0.210 HD
ENDBRANCH  34  35
ENDBRANCH  18  34
BRANCH  18  37
ATOM     37  C   UNL     1      -6.793  -0.741   0.000  1.00  0.00     0.168 C 
BRANCH  37  38
ATOM     38  O   UNL     1      -7.110  -2.207   0.000  1.00  0.00    -0.396 OA
ATOM     39  H   UNL     1       0.000   0.000   0.000  1.00  0.00     0.210 HD
ENDBRANCH  37  38
ENDBRANCH  18  37
BRANCH  17  40
ATOM     40  O   UNL     1      -7.563   1.102   0.000  1.00  0.00    -0.392 OA
ATOM     41  H   UNL     1       0.000   0.000   0.000  1.00  0.00     0.210 HD
ENDBRANCH  17  40
TORSDOF 8
