REMARK SMILES COc1cc([C@H]2OC[C@H]3[C@@H]2CO[C@@H]3c2ccc(OC)c(OC)c2)ccc1O
REMARK SMILES IDX 6 1 7 2 8 3 9 4 10 5 11 6 12 7 13 8 5 9 3 10 4 11 26 12
REMARK SMILES IDX 25 13 24 14 2 15 1 16 27 17 14 19 15 20 23 21 16 22 20 23
REMARK SMILES IDX 17 24 21 25 22 26 18 27 19 28
REMARK H PARENT 27 18
ROOT
ATOM      1  C   UNL     1       1.986  -0.153   0.000  1.00  0.00     0.154 C 
ATOM      2  O   UNL     1       1.392  -1.531   0.000  1.00  0.00    -0.373 OA
ATOM      3  C   UNL     1      -0.102  -1.391   0.000  1.00  0.00     0.168 C 
ATOM      4  C   UNL     1      -0.430   0.072   0.000  1.00  0.00     0.057 C 
ATOM      5  C   UNL     1       0.860   0.837   0.000  1.00  0.00     0.057 C 
ATOM      6  C   UNL     1       0.531   2.301   0.000  1.00  0.00     0.168 C 
ATOM      7  O   UNL     1      -0.963   2.440   0.000  1.00  0.00    -0.373 OA
ATOM      8  C   UNL     1      -1.557   1.063   0.000  1.00  0.00     0.154 C 
ENDROOT
BRANCH   1   9
ATOM      9  C   UNL     1       3.450   0.176   0.000  1.00  0.00    -0.015 A 
ATOM     10  C   UNL     1       5.930  -0.598   0.000  1.00  0.00     0.160 A 
ATOM     11  C   UNL     1       4.466  -0.927   0.000  1.00  0.00     0.056 A 
ATOM     12  C   UNL     1       6.377   0.834   0.000  1.00  0.00     0.157 A 
ATOM     13  C   UNL     1       5.360   1.937   0.000  1.00  0.00     0.050 A 
ATOM     14  C   UNL     1       3.896   1.608   0.000  1.00  0.00     0.010 A 
BRANCH  10  15
ATOM     15  O   UNL     1       6.946  -1.701   0.000  1.00  0.00    -0.493 OA
ATOM     16  C   UNL     1       6.499  -3.133   0.000  1.00  0.00     0.278 C 
ENDBRANCH  10  15
BRANCH  12  17
ATOM     17  O   UNL     1       7.840   1.163   0.000  1.00  0.00    -0.504 OA
ATOM     18  H   UNL     1       0.000   0.000   0.000  1.00  0.00     0.293 HD
ENDBRANCH  12  17
ENDBRANCH   1   9
BRANCH   8  19
ATOM     19  C   UNL     1      -3.020   0.734   0.000  1.00  0.00    -0.015 A 
ATOM     20  C   UNL     1      -4.037   1.837   0.000  1.00  0.00     0.010 A 
ATOM     21  C   UNL     1      -3.467  -0.698   0.000  1.00  0.00     0.056 A 
ATOM     22  C   UNL     1      -5.500   1.508   0.000  1.00  0.00     0.051 A 
ATOM     23  C   UNL     1      -4.931  -1.027   0.000  1.00  0.00     0.161 A 
ATOM     24  C   UNL     1      -5.947   0.076   0.000  1.00  0.00     0.160 A 
BRANCH  23  25
ATOM     25  O   UNL     1      -5.378  -2.459   0.000  1.00  0.00    -0.493 OA
ATOM     26  C   UNL     1      -4.361  -3.562   0.000  1.00  0.00     0.278 C 
ENDBRANCH  23  25
BRANCH  24  27
ATOM     27  O   UNL     1      -7.411  -0.253   0.000  1.00  0.00    -0.493 OA
ATOM     28  C   UNL     1      -8.428   0.850   0.000  1.00  0.00     0.278 C 
ENDBRANCH  24  27
ENDBRANCH   8  19
TORSDOF 6
