REMARK SMILES C/C=C(\C)C(=O)O[C@H]1C[C@@H](OC(C)=O)[C@@]2(C)CO[C@H]3[C@H]4O[C@@H]5C[C@@H](c6ccoc6)C(C)=C5[C@@]4(C)[C@H](CC(=O)OC)[C@]1(C)[C@@H]32
REMARK SMILES IDX 8 1 9 2 10 3 15 4 16 5 17 6 18 7 19 8 20 9 21 10 22 11 23 12
REMARK SMILES IDX 24 13 30 14 31 15 32 16 33 17 34 18 35 19 41 20 42 21 43 22
REMARK SMILES IDX 7 23 5 24 6 25 3 26 4 27 2 28 1 29 11 30 12 31 13 32 14 33
REMARK SMILES IDX 36 34 37 35 38 36 39 37 40 38 25 39 29 40 26 41 28 42 27 43
REMARK H PARENT
ROOT
ATOM      1  C   UNL     1       2.566   0.333   0.000  1.00  0.00     0.187 C 
ATOM      2  C   UNL     1       3.942  -0.263   0.000  1.00  0.00     0.091 C 
ATOM      3  C   UNL     1       4.114  -1.754   0.000  1.00  0.00     0.188 C 
ATOM      4  C   UNL     1       2.909  -2.647   0.000  1.00  0.00     0.034 C 
ATOM      5  C   UNL     1       4.215  -3.384   0.000  1.00  0.00     0.018 C 
ATOM      6  C   UNL     1       2.767  -4.140   0.000  1.00  0.00     0.171 C 
ATOM      7  O   UNL     1       1.303  -4.467   0.000  1.00  0.00    -0.374 OA
ATOM      8  C   UNL     1       0.540  -3.175   0.000  1.00  0.00     0.152 C 
ATOM      9  C   UNL     1      -0.848  -2.589   0.000  1.00  0.00     0.158 C 
ATOM     10  O   UNL     1      -2.140  -3.352   0.000  1.00  0.00    -0.367 OA
ATOM     11  C   UNL     1      -3.264  -2.359   0.000  1.00  0.00     0.146 C 
ATOM     12  C   UNL     1      -4.758  -2.217   0.000  1.00  0.00     0.049 C 
ATOM     13  C   UNL     1      -5.084  -0.753   0.000  1.00  0.00     0.051 C 
ATOM     14  C   UNL     1      -3.792   0.009   0.000  1.00  0.00    -0.063 C 
ATOM     15  C   UNL     1      -3.650   1.503   0.000  1.00  0.00     0.040 C 
ATOM     16  C   UNL     1      -2.668  -0.983   0.000  1.00  0.00    -0.033 C 
ATOM     17  C   UNL     1      -1.175  -1.125   0.000  1.00  0.00     0.024 C 
ATOM     18  C   UNL     1      -1.652   0.297   0.000  1.00  0.00     0.019 C 
ATOM     19  C   UNL     1      -0.070  -0.111   0.000  1.00  0.00     0.023 C 
ATOM     20  C   UNL     1       1.361  -0.560   0.000  1.00  0.00     0.015 C 
ATOM     21  C   UNL     1       0.575  -0.430   0.000  1.00  0.00     0.016 C 
ATOM     22  C   UNL     1       1.533  -2.050   0.000  1.00  0.00     0.043 C 
ENDROOT
BRANCH   1  23
ATOM     23  O   UNL     1       2.395   1.823   0.000  1.00  0.00    -0.458 OA
BRANCH  23  24
ATOM     24  C   UNL     1       3.599   2.717   0.000  1.00  0.00     0.333 C 
ATOM     25  O   UNL     1       4.976   2.120   0.000  1.00  0.00    -0.247 OA
BRANCH  24  26
ATOM     26  C   UNL     1       3.428   4.207   0.000  1.00  0.00     0.030 C 
ATOM     27  C   UNL     1       2.052   4.804   0.000  1.00  0.00     0.052 C 
BRANCH  26  28
ATOM     28  C   UNL     1       4.633   5.101   0.000  1.00  0.00    -0.020 C 
ATOM     29  C   UNL     1       4.462   6.591   0.000  1.00  0.00     0.036 C 
ENDBRANCH  26  28
ENDBRANCH  24  26
ENDBRANCH  23  24
ENDBRANCH   1  23
BRANCH   3  30
ATOM     30  O   UNL     1       5.490  -2.350   0.000  1.00  0.00    -0.462 OA
BRANCH  30  31
ATOM     31  C   UNL     1       6.695  -1.457   0.000  1.00  0.00     0.302 C 
ATOM     32  C   UNL     1       8.071  -2.053   0.000  1.00  0.00     0.139 C 
ATOM     33  O   UNL     1       6.523   0.034   0.000  1.00  0.00    -0.253 OA
ENDBRANCH  30  31
ENDBRANCH   3  30
BRANCH  19  34
ATOM     34  C   UNL     1      -0.396   1.353   0.000  1.00  0.00     0.128 C 
BRANCH  34  35
ATOM     35  C   UNL     1      -1.827   1.803   0.000  1.00  0.00     0.305 C 
ATOM     36  O   UNL     1      -2.932   0.788   0.000  1.00  0.00    -0.252 OA
BRANCH  35  37
ATOM     37  O   UNL     1      -2.153   3.267   0.000  1.00  0.00    -0.469 OA
ATOM     38  C   UNL     1      -3.584   3.716   0.000  1.00  0.00     0.282 C 
ENDBRANCH  35  37
ENDBRANCH  34  35
ENDBRANCH  19  34
BRANCH  13  39
ATOM     39  C   UNL     1      -6.460  -0.157   0.000  1.00  0.00    -0.002 A 
ATOM     40  C   UNL     1      -7.752  -0.919   0.000  1.00  0.00     0.199 A 
ATOM     41  C   UNL     1      -6.786   1.308   0.000  1.00  0.00     0.046 A 
ATOM     42  O   UNL     1      -8.876   0.073   0.000  1.00  0.00    -0.472 OA
ATOM     43  C   UNL     1      -8.280   1.450   0.000  1.00  0.00     0.195 A 
ENDBRANCH  13  39
TORSDOF 10
