REMARK SMILES C[C@@H]1O[C@@H](OC[C@H]2O[C@@H](Oc3c(-c4ccc(O)cc4)oc4cc(Oc5cc(O)c6c(=O)c(O[C@@H]7O[C@H](CO[C@H]8O[C@@H](C)[C@H](O)[C@@H](O)[C@H]8O)[C@H](O)[C@H](O)[C@H]7O)c(-c7ccc(O)cc7)oc6c5)cc(O)c4c3=O)[C@H](O)[C@@H](O)[C@@H]2O)[C@H](O)[C@H](O)[C@H]1O
REMARK SMILES IDX 24 1 23 2 11 3 12 4 70 5 20 6 69 7 21 8 67 9 22 10 66 11
REMARK SMILES IDX 71 12 10 13 9 14 7 15 8 16 76 17 74 18 72 19 6 20 5 21 4 22
REMARK SMILES IDX 2 23 3 24 82 25 80 26 78 27 1 28 83 29 81 31 79 33 77 35
REMARK SMILES IDX 75 37 73 39 13 41 14 42 19 43 15 44 18 45 16 46 17 47 68 49
REMARK SMILES IDX 25 51 26 52 65 53 27 54 64 55 29 56 63 57 30 58 55 59 32 60
REMARK SMILES IDX 31 61 28 62 56 64 57 65 62 66 58 67 61 68 59 69 60 70 33 72
REMARK SMILES IDX 34 73 35 74 53 75 36 76 51 77 49 78 54 79 37 81 38 82 39 83
REMARK SMILES IDX 40 84 47 85 41 86 45 87 43 88 42 89 48 90 46 92 44 94 52 96
REMARK SMILES IDX 50 98
REMARK H PARENT 83 30 81 32 79 34 77 36 75 38 73 40 17 48 68 50 28 63 60 71
REMARK H PARENT 54 80 48 91 46 93 44 95 52 97 50 99
ROOT
ATOM      1  O   UNL     1       0.190   3.426   0.000  1.00  0.00    -0.457 OA
ENDROOT
BRANCH   1   2
ATOM      2  C   UNL     1      -0.941   2.440   0.000  1.00  0.00     0.134 A 
ATOM      3  C   UNL     1      -4.044  -1.990   0.000  1.00  0.00     0.214 A 
ATOM      4  C   UNL     1      -2.625  -2.476   0.000  1.00  0.00     0.180 A 
ATOM      5  C   UNL     1      -4.332  -0.518   0.000  1.00  0.00     0.239 A 
ATOM      6  O   UNL     1      -1.494  -1.490   0.000  1.00  0.00    -0.452 OA
ATOM      7  C   UNL     1      -3.202   0.468   0.000  1.00  0.00     0.111 A 
ATOM      8  C   UNL     1      -1.783  -0.018   0.000  1.00  0.00     0.146 A 
ATOM      9  C   UNL     1      -3.490   1.940   0.000  1.00  0.00     0.134 A 
ATOM     10  C   UNL     1      -0.652   0.968   0.000  1.00  0.00     0.095 A 
ATOM     11  C   UNL     1      -2.360   2.926   0.000  1.00  0.00     0.094 A 
ATOM     12  O   UNL     1      -5.751  -0.032   0.000  1.00  0.00    -0.285 OA
BRANCH   3  13
ATOM     13  O   UNL     1      -5.174  -2.976   0.000  1.00  0.00    -0.454 OA
BRANCH  13  14
ATOM     14  C   UNL     1      -6.593  -2.490   0.000  1.00  0.00     0.339 C 
ATOM     15  C   UNL     1      -8.301  -0.532   0.000  1.00  0.00     0.180 C 
ATOM     16  O   UNL     1      -6.882  -1.018   0.000  1.00  0.00    -0.332 OA
ATOM     17  C   UNL     1      -9.431  -1.518   0.000  1.00  0.00     0.177 C 
ATOM     18  C   UNL     1      -9.143  -2.990   0.000  1.00  0.00     0.180 C 
ATOM     19  C   UNL     1      -7.724  -3.476   0.000  1.00  0.00     0.214 C 
BRANCH  15  20
ATOM     20  C   UNL     1      -8.589   0.940   0.000  1.00  0.00     0.198 C 
BRANCH  20  21
ATOM     21  O   UNL     1     -10.009   1.426   0.000  1.00  0.00    -0.347 OA
BRANCH  21  22
ATOM     22  C   UNL     1     -10.297   2.898   0.000  1.00  0.00     0.281 C 
ATOM     23  C   UNL     1     -12.005   4.856   0.000  1.00  0.00     0.150 C 
ATOM     24  O   UNL     1     -11.716   3.384   0.000  1.00  0.00    -0.344 OA
ATOM     25  C   UNL     1     -10.874   5.842   0.000  1.00  0.00     0.174 C 
ATOM     26  C   UNL     1      -9.455   5.356   0.000  1.00  0.00     0.179 C 
ATOM     27  C   UNL     1      -9.167   3.884   0.000  1.00  0.00     0.202 C 
ATOM     28  C   UNL     1     -13.424   5.342   0.000  1.00  0.00     0.041 C 
BRANCH  25  29
ATOM     29  O   UNL     1     -11.163   7.314   0.000  1.00  0.00    -0.388 OA
ATOM     30  H   UNL     1       0.000   0.000   0.000  1.00  0.00     0.211 HD
ENDBRANCH  25  29
BRANCH  26  31
ATOM     31  O   UNL     1      -8.325   6.342   0.000  1.00  0.00    -0.387 OA
ATOM     32  H   UNL     1       0.000   0.000   0.000  1.00  0.00     0.211 HD
ENDBRANCH  26  31
BRANCH  27  33
ATOM     33  O   UNL     1      -7.748   3.398   0.000  1.00  0.00    -0.385 OA
ATOM     34  H   UNL     1       0.000   0.000   0.000  1.00  0.00     0.211 HD
ENDBRANCH  27  33
ENDBRANCH  21  22
ENDBRANCH  20  21
ENDBRANCH  15  20
BRANCH  17  35
ATOM     35  O   UNL     1     -10.850  -1.032   0.000  1.00  0.00    -0.387 OA
ATOM     36  H   UNL     1       0.000   0.000   0.000  1.00  0.00     0.211 HD
ENDBRANCH  17  35
BRANCH  18  37
ATOM     37  O   UNL     1     -10.273  -3.975   0.000  1.00  0.00    -0.387 OA
ATOM     38  H   UNL     1       0.000   0.000   0.000  1.00  0.00     0.211 HD
ENDBRANCH  18  37
BRANCH  19  39
ATOM     39  O   UNL     1      -7.435  -4.948   0.000  1.00  0.00    -0.384 OA
ATOM     40  H   UNL     1       0.000   0.000   0.000  1.00  0.00     0.211 HD
ENDBRANCH  19  39
ENDBRANCH  13  14
ENDBRANCH   3  13
BRANCH   4  41
ATOM     41  C   UNL     1      -2.336  -3.948   0.000  1.00  0.00     0.021 A 
ATOM     42  C   UNL     1      -3.466  -4.934   0.000  1.00  0.00     0.016 A 
ATOM     43  C   UNL     1      -0.917  -4.434   0.000  1.00  0.00     0.016 A 
ATOM     44  C   UNL     1      -3.178  -6.406   0.000  1.00  0.00     0.047 A 
ATOM     45  C   UNL     1      -0.628  -5.906   0.000  1.00  0.00     0.047 A 
ATOM     46  C   UNL     1      -1.759  -6.892   0.000  1.00  0.00     0.115 A 
BRANCH  46  47
ATOM     47  O   UNL     1      -1.470  -8.364   0.000  1.00  0.00    -0.508 OA
ATOM     48  H   UNL     1       0.000   0.000   0.000  1.00  0.00     0.293 HD
ENDBRANCH  46  47
ENDBRANCH   4  41
BRANCH   9  49
ATOM     49  O   UNL     1      -4.910   2.426   0.000  1.00  0.00    -0.507 OA
ATOM     50  H   UNL     1       0.000   0.000   0.000  1.00  0.00     0.293 HD
ENDBRANCH   9  49
ENDBRANCH   1   2
BRANCH   1  51
ATOM     51  C   UNL     1       1.609   2.940   0.000  1.00  0.00     0.134 A 
ATOM     52  C   UNL     1       1.897   1.468   0.000  1.00  0.00     0.094 A 
ATOM     53  C   UNL     1       2.739   3.926   0.000  1.00  0.00     0.095 A 
ATOM     54  C   UNL     1       3.316   0.982   0.000  1.00  0.00     0.134 A 
ATOM     55  C   UNL     1       4.158   3.440   0.000  1.00  0.00     0.146 A 
ATOM     56  C   UNL     1       4.447   1.968   0.000  1.00  0.00     0.111 A 
ATOM     57  O   UNL     1       5.289   4.426   0.000  1.00  0.00    -0.452 OA
ATOM     58  C   UNL     1       5.866   1.482   0.000  1.00  0.00     0.239 A 
ATOM     59  C   UNL     1       6.708   3.939   0.000  1.00  0.00     0.180 A 
ATOM     60  C   UNL     1       6.996   2.467   0.000  1.00  0.00     0.214 A 
ATOM     61  O   UNL     1       6.154   0.010   0.000  1.00  0.00    -0.285 OA
BRANCH  54  62
ATOM     62  O   UNL     1       3.605  -0.490   0.000  1.00  0.00    -0.507 OA
ATOM     63  H   UNL     1       0.000   0.000   0.000  1.00  0.00     0.293 HD
ENDBRANCH  54  62
BRANCH  59  64
ATOM     64  C   UNL     1       7.838   4.925   0.000  1.00  0.00     0.021 A 
ATOM     65  C   UNL     1       9.257   4.439   0.000  1.00  0.00     0.016 A 
ATOM     66  C   UNL     1       7.550   6.397   0.000  1.00  0.00     0.016 A 
ATOM     67  C   UNL     1      10.388   5.425   0.000  1.00  0.00     0.047 A 
ATOM     68  C   UNL     1       8.680   7.383   0.000  1.00  0.00     0.047 A 
ATOM     69  C   UNL     1      10.099   6.897   0.000  1.00  0.00     0.115 A 
BRANCH  69  70
ATOM     70  O   UNL     1      11.230   7.883   0.000  1.00  0.00    -0.508 OA
ATOM     71  H   UNL     1       0.000   0.000   0.000  1.00  0.00     0.293 HD
ENDBRANCH  69  70
ENDBRANCH  59  64
BRANCH  60  72
ATOM     72  O   UNL     1       8.415   1.981   0.000  1.00  0.00    -0.454 OA
BRANCH  72  73
ATOM     73  C   UNL     1       8.704   0.509   0.000  1.00  0.00     0.339 C 
ATOM     74  O   UNL     1       7.574  -0.476   0.000  1.00  0.00    -0.332 OA
ATOM     75  C   UNL     1      10.123   0.023   0.000  1.00  0.00     0.214 C 
ATOM     76  C   UNL     1       7.862  -1.948   0.000  1.00  0.00     0.180 C 
ATOM     77  C   UNL     1      10.412  -1.449   0.000  1.00  0.00     0.180 C 
ATOM     78  C   UNL     1       9.281  -2.434   0.000  1.00  0.00     0.177 C 
BRANCH  75  79
ATOM     79  O   UNL     1      11.254   1.009   0.000  1.00  0.00    -0.384 OA
ATOM     80  H   UNL     1       0.000   0.000   0.000  1.00  0.00     0.211 HD
ENDBRANCH  75  79
BRANCH  76  81
ATOM     81  C   UNL     1       6.732  -2.934   0.000  1.00  0.00     0.198 C 
BRANCH  81  82
ATOM     82  O   UNL     1       5.313  -2.448   0.000  1.00  0.00    -0.347 OA
BRANCH  82  83
ATOM     83  C   UNL     1       4.182  -3.434   0.000  1.00  0.00     0.281 C 
ATOM     84  O   UNL     1       2.763  -2.948   0.000  1.00  0.00    -0.344 OA
ATOM     85  C   UNL     1       4.471  -4.906   0.000  1.00  0.00     0.202 C 
ATOM     86  C   UNL     1       1.633  -3.934   0.000  1.00  0.00     0.150 C 
ATOM     87  C   UNL     1       3.340  -5.892   0.000  1.00  0.00     0.179 C 
ATOM     88  C   UNL     1       1.921  -5.406   0.000  1.00  0.00     0.174 C 
ATOM     89  C   UNL     1       0.213  -3.448   0.000  1.00  0.00     0.041 C 
BRANCH  85  90
ATOM     90  O   UNL     1       5.890  -5.392   0.000  1.00  0.00    -0.385 OA
ATOM     91  H   UNL     1       0.000   0.000   0.000  1.00  0.00     0.211 HD
ENDBRANCH  85  90
BRANCH  87  92
ATOM     92  O   UNL     1       3.629  -7.364   0.000  1.00  0.00    -0.387 OA
ATOM     93  H   UNL     1       0.000   0.000   0.000  1.00  0.00     0.211 HD
ENDBRANCH  87  92
BRANCH  88  94
ATOM     94  O   UNL     1       0.791  -6.392   0.000  1.00  0.00    -0.388 OA
ATOM     95  H   UNL     1       0.000   0.000   0.000  1.00  0.00     0.211 HD
ENDBRANCH  88  94
ENDBRANCH  82  83
ENDBRANCH  81  82
ENDBRANCH  76  81
BRANCH  77  96
ATOM     96  O   UNL     1      11.831  -1.935   0.000  1.00  0.00    -0.387 OA
ATOM     97  H   UNL     1       0.000   0.000   0.000  1.00  0.00     0.211 HD
ENDBRANCH  77  96
BRANCH  78  98
ATOM     98  O   UNL     1       9.570  -3.906   0.000  1.00  0.00    -0.387 OA
ATOM     99  H   UNL     1       0.000   0.000   0.000  1.00  0.00     0.211 HD
ENDBRANCH  78  98
ENDBRANCH  72  73
ENDBRANCH  60  72
ENDBRANCH   1  51
TORSDOF 30
