REMARK SMILES COc1cc2oc(=O)ccc2cc1O
REMARK SMILES IDX 3 1 4 2 5 3 11 4 10 5 9 6 7 7 8 8 6 9 12 10 13 11 2 12 1 13
REMARK SMILES IDX 14 14
REMARK H PARENT 14 15
ROOT
ATOM      1  C   UNL     1      -2.061   0.321   0.000  1.00  0.00     0.164 A 
ATOM      2  C   UNL     1      -0.803   1.138   0.000  1.00  0.00     0.098 A 
ATOM      3  C   UNL     1       0.533   0.457   0.000  1.00  0.00     0.142 A 
ATOM      4  C   UNL     1       0.612  -1.041   0.000  1.00  0.00     0.022 A 
ATOM      5  C   UNL     1       1.949  -1.722   0.000  1.00  0.00     0.019 A 
ATOM      6  C   UNL     1       3.207  -0.905   0.000  1.00  0.00     0.094 A 
ATOM      7  C   UNL     1       3.128   0.593   0.000  1.00  0.00     0.336 A 
ATOM      8  O   UNL     1       4.386   1.410   0.000  1.00  0.00    -0.246 OA
ATOM      9  O   UNL     1       1.792   1.274   0.000  1.00  0.00    -0.423 OA
ATOM     10  C   UNL     1      -0.646  -1.858   0.000  1.00  0.00     0.062 A 
ATOM     11  C   UNL     1      -1.982  -1.177   0.000  1.00  0.00     0.158 A 
ENDROOT
BRANCH   1  12
ATOM     12  O   UNL     1      -3.398   1.002   0.000  1.00  0.00    -0.493 OA
ATOM     13  C   UNL     1      -3.476   2.500   0.000  1.00  0.00     0.278 C 
ENDBRANCH   1  12
BRANCH  11  14
ATOM     14  O   UNL     1      -3.240  -1.994   0.000  1.00  0.00    -0.504 OA
ATOM     15  H   UNL     1       0.000   0.000   0.000  1.00  0.00     0.293 HD
ENDBRANCH  11  14
TORSDOF 2
