REMARK SMILES CC1=C(O)C(=O)C=C2C1=CC=C1[C@@]2(C)CC[C@@]2(C)[C@@H]3C[C@H](C)[C@H](O)[C@@H](O)[C@]3(C)CC[C@]12C
REMARK SMILES IDX 1 1 2 2 3 3 5 4 6 5 7 6 8 7 9 8 10 9 11 10 12 11 13 12 14 13
REMARK SMILES IDX 15 14 16 15 17 16 18 17 19 18 20 19 21 20 22 21 23 22 25 23
REMARK SMILES IDX 27 24 28 25 29 26 30 27 31 28 32 29 4 30 26 32 24 34
REMARK H PARENT 4 31 26 33 24 35
ROOT
ATOM      1  C   UNL     1      -6.095  -2.316   0.000  1.00  0.00     0.049 C 
ATOM      2  C   UNL     1      -5.371  -1.002   0.000  1.00  0.00     0.002 C 
ATOM      3  C   UNL     1      -6.148   0.281   0.000  1.00  0.00     0.166 C 
ATOM      4  C   UNL     1      -5.424   1.595   0.000  1.00  0.00     0.220 C 
ATOM      5  O   UNL     1      -6.200   2.879   0.000  1.00  0.00    -0.286 OA
ATOM      6  C   UNL     1      -3.924   1.626   0.000  1.00  0.00     0.061 C 
ATOM      7  C   UNL     1      -3.148   0.342   0.000  1.00  0.00    -0.026 C 
ATOM      8  C   UNL     1      -3.872  -0.972   0.000  1.00  0.00    -0.015 C 
ATOM      9  C   UNL     1      -3.095  -2.255   0.000  1.00  0.00     0.009 C 
ATOM     10  C   UNL     1      -1.596  -2.225   0.000  1.00  0.00     0.001 C 
ATOM     11  C   UNL     1      -0.872  -0.911   0.000  1.00  0.00    -0.053 C 
ATOM     12  C   UNL     1      -1.649   0.373   0.000  1.00  0.00     0.015 C 
ATOM     13  C   UNL     1      -2.425   1.656   0.000  1.00  0.00     0.021 C 
ATOM     14  C   UNL     1      -0.925   1.687   0.000  1.00  0.00     0.016 C 
ATOM     15  C   UNL     1       0.575   1.717   0.000  1.00  0.00     0.009 C 
ATOM     16  C   UNL     1       1.351   0.433   0.000  1.00  0.00    -0.020 C 
ATOM     17  C   UNL     1       2.074   1.747   0.000  1.00  0.00     0.012 C 
ATOM     18  C   UNL     1       2.851   0.464   0.000  1.00  0.00     0.005 C 
ATOM     19  C   UNL     1       3.574   1.778   0.000  1.00  0.00     0.011 C 
ATOM     20  C   UNL     1       5.074   1.808   0.000  1.00  0.00     0.018 C 
ATOM     21  C   UNL     1       5.797   3.122   0.000  1.00  0.00     0.010 C 
ATOM     22  C   UNL     1       5.850   0.525   0.000  1.00  0.00     0.146 C 
ATOM     23  C   UNL     1       5.126  -0.789   0.000  1.00  0.00     0.149 C 
ATOM     24  C   UNL     1       3.627  -0.820   0.000  1.00  0.00    -0.001 C 
ATOM     25  C   UNL     1       4.403  -2.103   0.000  1.00  0.00     0.014 C 
ATOM     26  C   UNL     1       2.903  -2.134   0.000  1.00  0.00     0.011 C 
ATOM     27  C   UNL     1       1.403  -2.164   0.000  1.00  0.00     0.012 C 
ATOM     28  C   UNL     1       0.627  -0.880   0.000  1.00  0.00    -0.005 C 
ATOM     29  C   UNL     1      -0.096  -2.195   0.000  1.00  0.00     0.017 C 
ENDROOT
BRANCH   3  30
ATOM     30  O   UNL     1      -7.647   0.251   0.000  1.00  0.00    -0.504 OA
ATOM     31  H   UNL     1       0.000   0.000   0.000  1.00  0.00     0.293 HD
ENDBRANCH   3  30
BRANCH  23  32
ATOM     32  O   UNL     1       5.903  -2.073   0.000  1.00  0.00    -0.390 OA
ATOM     33  H   UNL     1       0.000   0.000   0.000  1.00  0.00     0.211 HD
ENDBRANCH  23  32
BRANCH  22  34
ATOM     34  O   UNL     1       7.350   0.555   0.000  1.00  0.00    -0.390 OA
ATOM     35  H   UNL     1       0.000   0.000   0.000  1.00  0.00     0.211 HD
ENDBRANCH  22  34
TORSDOF 3
