REMARK SMILES C=C/C(C)=C\C[C@]1(C)[C@H](C)C[C@H](O)[C@@]23C(=C[C@@H](OC(=O)CCCCC)C[C@@H]12)[C@@H](OC(C)=O)O[C@H]3OC(C)=O
REMARK SMILES IDX 18 1 17 2 7 3 9 4 27 5 11 6 26 7 14 8 12 9 15 10 34 11 16 12
REMARK SMILES IDX 28 13 33 14 8 15 10 16 6 17 5 18 3 19 4 20 2 21 1 22 13 23
REMARK SMILES IDX 35 25 36 26 37 27 38 28 29 29 30 30 31 31 32 32 19 33 20 34
REMARK SMILES IDX 21 35 22 36 23 37 24 38 25 39
REMARK H PARENT 13 24
ROOT
ATOM      1  O   UNL     1       2.930   1.774   0.000  1.00  0.00    -0.458 OA
ENDROOT
BRANCH   1   2
ATOM      2  C   UNL     1       1.728   0.876   0.000  1.00  0.00     0.200 C 
ATOM      3  C   UNL     1      -2.230   1.162   0.000  1.00  0.00    -0.022 C 
ATOM      4  C   UNL     1      -3.432   0.265   0.000  1.00  0.00    -0.005 C 
ATOM      5  C   UNL     1      -0.852   0.571   0.000  1.00  0.00     0.019 C 
ATOM      6  C   UNL     1      -3.256  -1.225   0.000  1.00  0.00     0.037 C 
ATOM      7  C   UNL     1       0.350   1.468   0.000  1.00  0.00     0.055 C 
ATOM      8  C   UNL     1      -0.676  -0.919   0.000  1.00  0.00     0.089 C 
ATOM      9  C   UNL     1      -1.877  -1.817   0.000  1.00  0.00     0.131 C 
ATOM     10  C   UNL     1       0.703  -1.511   0.000  1.00  0.00     0.013 C 
ATOM     11  C   UNL     1      -0.171  -0.694   0.000  1.00  0.00     0.327 C 
ATOM     12  C   UNL     1       1.905  -0.613   0.000  1.00  0.00     0.024 C 
ATOM     13  C   UNL     1       0.519  -0.989   0.000  1.00  0.00     0.343 C 
ATOM     14  O   UNL     1      -0.069  -1.406   0.000  1.00  0.00    -0.298 OA
ATOM     15  C   UNL     1      -1.408   2.417   0.000  1.00  0.00     0.012 C 
ATOM     16  C   UNL     1      -4.810   0.857   0.000  1.00  0.00     0.008 C 
BRANCH   3  17
ATOM     17  C   UNL     1      -3.323   2.190   0.000  1.00  0.00     0.035 C 
BRANCH  17  18
ATOM     18  C   UNL     1      -2.980   3.650   0.000  1.00  0.00    -0.023 C 
BRANCH  18  19
ATOM     19  C   UNL     1      -4.072   4.678   0.000  1.00  0.00    -0.056 C 
ATOM     20  C   UNL     1      -3.729   6.138   0.000  1.00  0.00     0.044 C 
BRANCH  19  21
ATOM     21  C   UNL     1      -5.509   4.245   0.000  1.00  0.00    -0.005 C 
ATOM     22  C   UNL     1      -6.601   5.273   0.000  1.00  0.00     0.009 C 
ENDBRANCH  19  21
ENDBRANCH  18  19
ENDBRANCH  17  18
ENDBRANCH   3  17
BRANCH   9  23
ATOM     23  O   UNL     1      -2.066  -3.305   0.000  1.00  0.00    -0.392 OA
ATOM     24  H   UNL     1       0.000   0.000   0.000  1.00  0.00     0.210 HD
ENDBRANCH   9  23
BRANCH  11  25
ATOM     25  O   UNL     1      -3.158  -1.910   0.000  1.00  0.00    -0.435 OA
BRANCH  25  26
ATOM     26  C   UNL     1      -4.024  -3.135   0.000  1.00  0.00     0.304 C 
ATOM     27  C   UNL     1      -5.517  -2.998   0.000  1.00  0.00     0.139 C 
ATOM     28  O   UNL     1      -3.395  -4.497   0.000  1.00  0.00    -0.253 OA
ENDBRANCH  25  26
ENDBRANCH  11  25
BRANCH  13  29
ATOM     29  O   UNL     1       1.694  -3.994   0.000  1.00  0.00    -0.432 OA
BRANCH  29  30
ATOM     30  C   UNL     1       1.401  -5.465   0.000  1.00  0.00     0.305 C 
ATOM     31  C   UNL     1       2.529  -6.454   0.000  1.00  0.00     0.139 C 
ATOM     32  O   UNL     1      -0.019  -5.947   0.000  1.00  0.00    -0.253 OA
ENDBRANCH  29  30
ENDBRANCH  13  29
ENDBRANCH   1   2
BRANCH   1  33
ATOM     33  C   UNL     1       4.308   1.182   0.000  1.00  0.00     0.306 C 
ATOM     34  O   UNL     1       4.484  -0.307   0.000  1.00  0.00    -0.252 OA
BRANCH  33  35
ATOM     35  C   UNL     1       5.510   2.080   0.000  1.00  0.00     0.123 C 
BRANCH  35  36
ATOM     36  C   UNL     1       6.888   1.488   0.000  1.00  0.00     0.012 C 
BRANCH  36  37
ATOM     37  C   UNL     1       8.090   2.386   0.000  1.00  0.00     0.000 C 
BRANCH  37  38
ATOM     38  C   UNL     1       9.468   1.794   0.000  1.00  0.00    -0.003 C 
ATOM     39  C   UNL     1      10.670   2.692   0.000  1.00  0.00     0.004 C 
ENDBRANCH  37  38
ENDBRANCH  36  37
ENDBRANCH  35  36
ENDBRANCH  33  35
ENDBRANCH   1  33
TORSDOF 15
