REMARK SMILES C=CC(C)=CC[C@]1(C)[C@H](C)[C@H](OC(=O)CCC)C[C@@]23C(=C[C@H](OC)C[C@@H]12)[C@@H](OC(C)=O)O[C@H]3OC(C)=O
REMARK SMILES IDX 7 1 8 2 9 3 10 4 11 5 18 6 19 7 20 8 21 9 22 10 25 11 26 12
REMARK SMILES IDX 27 13 32 14 33 15 6 16 5 17 3 18 4 19 2 20 1 21 12 22 13 23
REMARK SMILES IDX 14 24 15 25 16 26 17 27 23 28 24 29 34 30 35 31 36 32 37 33
REMARK SMILES IDX 28 34 29 35 30 36 31 37
REMARK H PARENT
ROOT
ATOM      1  C   UNL     1       0.722  -1.469   0.000  1.00  0.00    -0.019 C 
ATOM      2  C   UNL     1       0.583  -2.963   0.000  1.00  0.00     0.012 C 
ATOM      3  C   UNL     1       1.362  -0.113   0.000  1.00  0.00     0.033 C 
ATOM      4  C   UNL     1       2.857   0.010   0.000  1.00  0.00     0.012 C 
ATOM      5  C   UNL     1       0.508   1.120   0.000  1.00  0.00     0.181 C 
ATOM      6  C   UNL     1      -0.987   0.997   0.000  1.00  0.00     0.064 C 
ATOM      7  C   UNL     1      -1.627  -0.359   0.000  1.00  0.00     0.067 C 
ATOM      8  C   UNL     1      -3.122  -0.482   0.000  1.00  0.00     0.009 C 
ATOM      9  C   UNL     1      -3.763  -1.839   0.000  1.00  0.00     0.011 C 
ATOM     10  C   UNL     1      -2.909  -3.072   0.000  1.00  0.00     0.141 C 
ATOM     11  C   UNL     1      -1.414  -2.949   0.000  1.00  0.00     0.041 C 
ATOM     12  C   UNL     1      -0.773  -1.592   0.000  1.00  0.00     0.015 C 
ATOM     13  C   UNL     1      -2.715  -0.857   0.000  1.00  0.00     0.342 C 
ATOM     14  O   UNL     1      -2.392  -0.213   0.000  1.00  0.00    -0.298 OA
ATOM     15  C   UNL     1      -1.968  -0.795   0.000  1.00  0.00     0.325 C 
ENDROOT
BRANCH   1  16
ATOM     16  C   UNL     1       2.168  -1.865   0.000  1.00  0.00     0.035 C 
BRANCH  16  17
ATOM     17  C   UNL     1       2.549  -3.316   0.000  1.00  0.00    -0.023 C 
BRANCH  17  18
ATOM     18  C   UNL     1       3.996  -3.711   0.000  1.00  0.00    -0.056 C 
ATOM     19  C   UNL     1       4.377  -5.162   0.000  1.00  0.00     0.044 C 
BRANCH  18  20
ATOM     20  C   UNL     1       5.062  -2.656   0.000  1.00  0.00    -0.005 C 
ATOM     21  C   UNL     1       6.509  -3.051   0.000  1.00  0.00     0.009 C 
ENDBRANCH  18  20
ENDBRANCH  17  18
ENDBRANCH  16  17
ENDBRANCH   1  16
BRANCH   5  22
ATOM     22  O   UNL     1       1.149   2.476   0.000  1.00  0.00    -0.462 OA
BRANCH  22  23
ATOM     23  C   UNL     1       2.644   2.600   0.000  1.00  0.00     0.306 C 
ATOM     24  O   UNL     1       3.498   1.367   0.000  1.00  0.00    -0.252 OA
BRANCH  23  25
ATOM     25  C   UNL     1       3.285   3.956   0.000  1.00  0.00     0.122 C 
BRANCH  25  26
ATOM     26  C   UNL     1       4.780   4.079   0.000  1.00  0.00     0.008 C 
ATOM     27  C   UNL     1       5.420   5.435   0.000  1.00  0.00     0.004 C 
ENDBRANCH  25  26
ENDBRANCH  23  25
ENDBRANCH  22  23
ENDBRANCH   5  22
BRANCH  10  28
ATOM     28  O   UNL     1      -3.550  -4.428   0.000  1.00  0.00    -0.377 OA
ATOM     29  C   UNL     1      -5.045  -4.551   0.000  1.00  0.00     0.195 C 
ENDBRANCH  10  28
BRANCH  15  30
ATOM     30  O   UNL     1       0.101   1.680   0.000  1.00  0.00    -0.435 OA
BRANCH  30  31
ATOM     31  C   UNL     1       0.291   3.168   0.000  1.00  0.00     0.304 C 
ATOM     32  C   UNL     1       1.675   3.747   0.000  1.00  0.00     0.139 C 
ATOM     33  O   UNL     1      -0.902   4.076   0.000  1.00  0.00    -0.253 OA
ENDBRANCH  30  31
ENDBRANCH  15  30
BRANCH  13  34
ATOM     34  O   UNL     1      -5.161   1.246   0.000  1.00  0.00    -0.432 OA
BRANCH  34  35
ATOM     35  C   UNL     1      -5.593   2.683   0.000  1.00  0.00     0.305 C 
ATOM     36  C   UNL     1      -7.053   3.028   0.000  1.00  0.00     0.139 C 
ATOM     37  O   UNL     1      -4.564   3.775   0.000  1.00  0.00    -0.253 OA
ENDBRANCH  34  35
ENDBRANCH  13  34
TORSDOF 13
