REMARK SMILES O=C(OC1COC(=O)c2cc(O)c(O)c(O)c2-c2c(cc(O)c(O)c2O)C(=O)OC1C1OC(=O)c2cc(O)c(O)c(O)c2-c2c(O)c(O)c(O)c3c2C(=O)OC1[C@H]3O)c1cc(O)c(O)c(O)c1
REMARK SMILES IDX 30 1 4 2 3 4 2 5 1 6 59 7 60 8 67 9 61 10 65 11 63 12 62 13
REMARK SMILES IDX 66 15 64 17 29 19 27 20 28 21 19 22 18 23 20 24 25 25 21 26
REMARK SMILES IDX 23 27 17 28 15 29 9 30 13 31 10 32 11 33 16 34 7 36 8 37
REMARK SMILES IDX 6 38 5 39 14 41 12 43 26 45 22 47 24 49 31 51 32 53 33 54
REMARK SMILES IDX 34 55 35 56 36 57 43 58 37 59 41 60 39 61 44 62 45 63 52 64
REMARK SMILES IDX 47 65 51 66 53 67 49 68 57 69 55 70 56 71 54 72 46 74 48 76
REMARK SMILES IDX 50 78 58 80 38 82 42 84 40 86
REMARK H PARENT 62 14 66 16 64 18 16 35 14 42 12 44 26 46 22 48 24 50 46 75
REMARK H PARENT 48 77 50 79 58 81 38 83 42 85 40 87
REMARK Flexibility Score:  330.800
ROOT
ATOM      1  C   UNL     1       1.432  -0.138   0.000  1.00  0.00     0.266 C 
ENDROOT
BRANCH   1   2
ATOM      2  C   UNL     1       1.511  -1.635   0.000  1.00  0.00     0.259 CG0
ATOM      3  G   UNL     1       2.388  -2.853   0.000  1.00  0.00     0.000 G0
BRANCH   2   4
ATOM      4  O   UNL     1       0.096  -2.134   0.000  1.00  0.00    -0.451 OA
BRANCH   4   5
ATOM      5  C   UNL     1      -1.042  -1.157   0.000  1.00  0.00     0.338 C 
ATOM      6  O   UNL     1      -1.131   0.340   0.000  1.00  0.00    -0.246 OA
BRANCH   5   7
ATOM      7  C   UNL     1      -2.457  -1.656   0.000  1.00  0.00     0.067 A 
ATOM      8  C   UNL     1      -3.596  -0.680   0.000  1.00  0.00     0.066 A 
ATOM      9  C   UNL     1      -2.733  -3.130   0.000  1.00  0.00     0.066 A 
ATOM     10  C   UNL     1      -5.011  -1.178   0.000  1.00  0.00     0.162 A 
ATOM     11  C   UNL     1      -4.148  -3.628   0.000  1.00  0.00     0.162 A 
ATOM     12  C   UNL     1      -5.287  -2.652   0.000  1.00  0.00     0.200 A 
BRANCH  10  13
ATOM     13  O   UNL     1      -6.352  -0.506   0.000  1.00  0.00    -0.504 OA
ATOM     14  H   UNL     1       0.000   0.000   0.000  1.00  0.00     0.293 HD
ENDBRANCH  10  13
BRANCH  11  15
ATOM     15  O   UNL     1      -4.424  -5.103   0.000  1.00  0.00    -0.504 OA
ATOM     16  H   UNL     1       0.000   0.000   0.000  1.00  0.00     0.293 HD
ENDBRANCH  11  15
BRANCH  12  17
ATOM     17  O   UNL     1      -6.702  -3.151   0.000  1.00  0.00    -0.502 OA
ATOM     18  H   UNL     1       0.000   0.000   0.000  1.00  0.00     0.293 HD
ENDBRANCH  12  17
ENDBRANCH   5   7
ENDBRANCH   4   5
ENDBRANCH   2   4
ENDBRANCH   1   2
BRANCH   1  19
ATOM     19  O   UNL     1       2.175   1.165   0.000  1.00  0.00    -0.450 OA
BRANCH  19  20
ATOM     20  C   UNL     1       3.504   1.860   0.000  1.00  0.00     0.339 C 
ATOM     21  O   UNL     1       3.212   3.331   0.000  1.00  0.00    -0.246 OA
BRANCH  20  22
ATOM     22  C   UNL     1       4.998   1.726   0.000  1.00  0.00     0.075 A 
ATOM     23  C   UNL     1       6.182   0.805   0.000  1.00  0.00     0.047 A 
ATOM     24  C   UNL     1       5.204   3.211   0.000  1.00  0.00     0.066 A 
ATOM     25  C   UNL     1       7.572   1.370   0.000  1.00  0.00     0.170 A 
ATOM     26  C   UNL     1       6.593   3.776   0.000  1.00  0.00     0.162 A 
ATOM     27  C   UNL     1       7.777   2.856   0.000  1.00  0.00     0.200 A 
BRANCH  23  28
ATOM     28  C   UNL     1       6.681  -0.610   0.000  1.00  0.00     0.047 A 
ATOM     29  C   UNL     1       8.117  -0.180   0.000  1.00  0.00     0.170 A 
ATOM     30  C   UNL     1       6.335  -2.070   0.000  1.00  0.00     0.075 A 
ATOM     31  C   UNL     1       9.209  -1.209   0.000  1.00  0.00     0.200 A 
ATOM     32  C   UNL     1       7.426  -3.099   0.000  1.00  0.00     0.066 A 
ATOM     33  C   UNL     1       8.863  -2.669   0.000  1.00  0.00     0.162 A 
BRANCH  29  34
ATOM     34  O   UNL     1       8.395   0.568   0.000  1.00  0.00    -0.504 OA
ATOM     35  H   UNL     1       0.000   0.000   0.000  1.00  0.00     0.293 HD
ENDBRANCH  29  34
BRANCH  30  36
ATOM     36  C   UNL     1       5.255  -3.111   0.000  1.00  0.00     0.339 C 
ATOM     37  O   UNL     1       5.949  -4.440   0.000  1.00  0.00    -0.246 OA
BRANCH  36  38
ATOM     38  O   UNL     1       3.784  -3.403   0.000  1.00  0.00    -0.458 OA
BRANCH  38  39
ATOM     39  C   UNL     1       2.388  -2.853   0.000  1.00  0.00     0.282 CG0
ATOM     40  G   UNL     1       1.511  -1.635   0.000  1.00  0.00     0.000 G0
ENDBRANCH  38  39
ENDBRANCH  36  38
ENDBRANCH  30  36
BRANCH  31  41
ATOM     41  O   UNL     1      10.646  -0.779   0.000  1.00  0.00    -0.502 OA
ATOM     42  H   UNL     1       0.000   0.000   0.000  1.00  0.00     0.293 HD
ENDBRANCH  31  41
BRANCH  33  43
ATOM     43  O   UNL     1       9.954  -3.698   0.000  1.00  0.00    -0.504 OA
ATOM     44  H   UNL     1       0.000   0.000   0.000  1.00  0.00     0.293 HD
ENDBRANCH  33  43
ENDBRANCH  23  28
BRANCH  25  45
ATOM     45  O   UNL     1       8.256   0.961   0.000  1.00  0.00    -0.504 OA
ATOM     46  H   UNL     1       0.000   0.000   0.000  1.00  0.00     0.293 HD
ENDBRANCH  25  45
BRANCH  26  47
ATOM     47  O   UNL     1       6.799   5.262   0.000  1.00  0.00    -0.504 OA
ATOM     48  H   UNL     1       0.000   0.000   0.000  1.00  0.00     0.293 HD
ENDBRANCH  26  47
BRANCH  27  49
ATOM     49  O   UNL     1       9.167   3.421   0.000  1.00  0.00    -0.502 OA
ATOM     50  H   UNL     1       0.000   0.000   0.000  1.00  0.00     0.293 HD
ENDBRANCH  27  49
ENDBRANCH  20  22
ENDBRANCH  19  20
ENDBRANCH   1  19
BRANCH   1  51
ATOM     51  C   UNL     1      -0.028   0.208   0.000  1.00  0.00     0.265 CG1
ATOM     52  G   UNL     1      -0.150   1.703   0.000  1.00  0.00     0.000 G1
BRANCH  51  53
ATOM     53  O   UNL     1      -0.808  -1.073   0.000  1.00  0.00    -0.451 OA
BRANCH  53  54
ATOM     54  C   UNL     1      -2.192  -1.651   0.000  1.00  0.00     0.339 C 
ATOM     55  O   UNL     1      -1.711  -3.072   0.000  1.00  0.00    -0.246 OA
BRANCH  54  56
ATOM     56  C   UNL     1      -3.651  -1.306   0.000  1.00  0.00     0.075 A 
ATOM     57  C   UNL     1      -4.148  -2.721   0.000  1.00  0.00     0.066 A 
ATOM     58  C   UNL     1      -4.629  -0.168   0.000  1.00  0.00     0.047 A 
ATOM     59  C   UNL     1      -5.622  -2.999   0.000  1.00  0.00     0.162 A 
ATOM     60  C   UNL     1      -6.103  -0.446   0.000  1.00  0.00     0.170 A 
ATOM     61  C   UNL     1      -6.599  -1.861   0.000  1.00  0.00     0.200 A 
BRANCH  58  62
ATOM     62  C   UNL     1      -4.751   1.327   0.000  1.00  0.00     0.047 A 
ATOM     63  C   UNL     1      -6.251   1.362   0.000  1.00  0.00     0.170 A 
ATOM     64  C   UNL     1      -3.971   2.608   0.000  1.00  0.00     0.081 A 
ATOM     65  C   UNL     1      -6.971   2.678   0.000  1.00  0.00     0.201 A 
ATOM     66  C   UNL     1      -4.691   3.925   0.000  1.00  0.00     0.046 A 
ATOM     67  C   UNL     1      -2.587   3.187   0.000  1.00  0.00     0.339 C 
ATOM     68  C   UNL     1      -6.191   3.959   0.000  1.00  0.00     0.168 A 
ATOM     69  C   UNL     1      -3.206   3.714   0.000  1.00  0.00     0.194 C 
ATOM     70  O   UNL     1      -1.128   2.841   0.000  1.00  0.00    -0.451 OA
ATOM     71  C   UNL     1      -0.150   1.703   0.000  1.00  0.00     0.255 CG1
ATOM     72  O   UNL     1      -2.526   4.685   0.000  1.00  0.00    -0.246 OA
ATOM     73  G   UNL     1      -0.028   0.208   0.000  1.00  0.00     0.000 G1
BRANCH  63  74
ATOM     74  O   UNL     1      -7.181   0.185   0.000  1.00  0.00    -0.504 OA
ATOM     75  H   UNL     1       0.000   0.000   0.000  1.00  0.00     0.293 HD
ENDBRANCH  63  74
BRANCH  65  76
ATOM     76  O   UNL     1      -8.470   2.713   0.000  1.00  0.00    -0.502 OA
ATOM     77  H   UNL     1       0.000   0.000   0.000  1.00  0.00     0.293 HD
ENDBRANCH  65  76
BRANCH  68  78
ATOM     78  O   UNL     1      -6.910   5.275   0.000  1.00  0.00    -0.504 OA
ATOM     79  H   UNL     1       0.000   0.000   0.000  1.00  0.00     0.293 HD
ENDBRANCH  68  78
BRANCH  69  80
ATOM     80  O   UNL     1      -2.716   5.132   0.000  1.00  0.00    -0.384 OA
ATOM     81  H   UNL     1       0.000   0.000   0.000  1.00  0.00     0.211 HD
ENDBRANCH  69  80
ENDBRANCH  58  62
BRANCH  59  82
ATOM     82  O   UNL     1      -6.118  -4.414   0.000  1.00  0.00    -0.504 OA
ATOM     83  H   UNL     1       0.000   0.000   0.000  1.00  0.00     0.293 HD
ENDBRANCH  59  82
BRANCH  60  84
ATOM     84  O   UNL     1      -7.212   0.564   0.000  1.00  0.00    -0.504 OA
ATOM     85  H   UNL     1       0.000   0.000   0.000  1.00  0.00     0.293 HD
ENDBRANCH  60  84
BRANCH  61  86
ATOM     86  O   UNL     1      -8.073  -2.139   0.000  1.00  0.00    -0.502 OA
ATOM     87  H   UNL     1       0.000   0.000   0.000  1.00  0.00     0.293 HD
ENDBRANCH  61  86
ENDBRANCH  54  56
ENDBRANCH  53  54
ENDBRANCH  51  53
ENDBRANCH   1  51
TORSDOF 20
