REMARK SMILES CC[C@H](C)/C=C/C1=CC2=CC(=O)[C@@]3(C)OC(=O)C(C(=O)[C@@H](C)[C@@H](C)O)=C3C2=CO1
REMARK SMILES IDX 7 1 8 2 9 3 10 4 11 5 12 6 13 7 14 8 15 9 16 10 17 11 18 12
REMARK SMILES IDX 26 13 27 14 28 15 29 16 6 17 5 18 3 19 4 20 2 21 1 22 19 23
REMARK SMILES IDX 20 24 21 25 22 26 23 27 24 28 25 29
REMARK H PARENT 25 30
ROOT
ATOM      1  C   UNL     1      -2.939   0.449   0.000  1.00  0.00     0.126 C 
ATOM      2  C   UNL     1      -2.350   1.829   0.000  1.00  0.00     0.056 C 
ATOM      3  C   UNL     1      -0.861   2.008   0.000  1.00  0.00    -0.007 C 
ATOM      4  C   UNL     1      -0.272   3.388   0.000  1.00  0.00     0.061 C 
ATOM      5  C   UNL     1       1.217   3.567   0.000  1.00  0.00     0.204 C 
ATOM      6  O   UNL     1       1.806   4.947   0.000  1.00  0.00    -0.290 OA
ATOM      7  C   UNL     1       2.117   2.368   0.000  1.00  0.00     0.198 C 
ATOM      8  C   UNL     1       2.847   3.678   0.000  1.00  0.00     0.071 C 
ATOM      9  O   UNL     1       3.611   2.234   0.000  1.00  0.00    -0.442 OA
ATOM     10  C   UNL     1       3.946   0.772   0.000  1.00  0.00     0.343 C 
ATOM     11  O   UNL     1       5.325   0.183   0.000  1.00  0.00    -0.246 OA
ATOM     12  C   UNL     1       2.658   0.002   0.000  1.00  0.00     0.111 C 
ATOM     13  C   UNL     1       1.528   0.988   0.000  1.00  0.00     0.032 C 
ATOM     14  C   UNL     1       0.039   0.808   0.000  1.00  0.00     0.026 C 
ATOM     15  C   UNL     1      -0.550  -0.571   0.000  1.00  0.00     0.204 C 
ATOM     16  O   UNL     1      -2.039  -0.751   0.000  1.00  0.00    -0.464 OA
ENDROOT
BRANCH   1  17
ATOM     17  C   UNL     1      -4.429   0.269   0.000  1.00  0.00     0.043 C 
BRANCH  17  18
ATOM     18  C   UNL     1      -5.018  -1.110   0.000  1.00  0.00    -0.020 C 
BRANCH  18  19
ATOM     19  C   UNL     1      -6.507  -1.290   0.000  1.00  0.00     0.008 C 
ATOM     20  C   UNL     1      -7.096  -2.670   0.000  1.00  0.00     0.012 C 
BRANCH  19  21
ATOM     21  C   UNL     1      -7.407  -0.090   0.000  1.00  0.00     0.004 C 
ATOM     22  C   UNL     1      -8.896  -0.270   0.000  1.00  0.00     0.004 C 
ENDBRANCH  19  21
ENDBRANCH  18  19
ENDBRANCH  17  18
ENDBRANCH   1  17
BRANCH  12  23
ATOM     23  C   UNL     1       2.524  -1.492   0.000  1.00  0.00     0.176 C 
ATOM     24  O   UNL     1       1.164  -2.123   0.000  1.00  0.00    -0.293 OA
BRANCH  23  25
ATOM     25  C   UNL     1       3.751  -2.355   0.000  1.00  0.00     0.087 C 
ATOM     26  C   UNL     1       5.112  -1.724   0.000  1.00  0.00     0.019 C 
BRANCH  25  27
ATOM     27  C   UNL     1       3.618  -3.849   0.000  1.00  0.00     0.121 C 
ATOM     28  C   UNL     1       2.257  -4.480   0.000  1.00  0.00     0.039 C 
BRANCH  27  29
ATOM     29  O   UNL     1       4.845  -4.712   0.000  1.00  0.00    -0.393 OA
ATOM     30  H   UNL     1       0.000   0.000   0.000  1.00  0.00     0.210 HD
ENDBRANCH  27  29
ENDBRANCH  25  27
ENDBRANCH  23  25
ENDBRANCH  12  23
TORSDOF 8
