REMARK SMILES COC(=O)C1=CO[C@@H](O)[C@@H]2[C@@H](C)[C@@H](O)C[C@H]12
REMARK SMILES IDX 5 1 6 2 7 3 8 4 10 5 11 6 12 7 13 8 15 9 16 10 3 11 4 12
REMARK SMILES IDX 2 13 1 14 9 15 14 17
REMARK H PARENT 9 16 14 18
ROOT
ATOM      1  C   UNL     1      -1.270   0.385   0.000  1.00  0.00     0.075 C 
ATOM      2  C   UNL     1      -1.330   1.883   0.000  1.00  0.00     0.202 C 
ATOM      3  O   UNL     1      -0.062   2.685   0.000  1.00  0.00    -0.472 OA
ATOM      4  C   UNL     1       1.266   1.987   0.000  1.00  0.00     0.307 C 
ATOM      5  C   UNL     1       1.326   0.488   0.000  1.00  0.00     0.071 C 
ATOM      6  C   UNL     1       2.480  -0.470   0.000  1.00  0.00     0.024 C 
ATOM      7  C   UNL     1       3.934  -0.100   0.000  1.00  0.00     0.011 C 
ATOM      8  C   UNL     1       1.925  -1.864   0.000  1.00  0.00     0.118 C 
ATOM      9  C   UNL     1       0.428  -1.767   0.000  1.00  0.00     0.041 C 
ATOM     10  C   UNL     1       0.058  -0.313   0.000  1.00  0.00     0.042 C 
ENDROOT
BRANCH   1  11
ATOM     11  C   UNL     1      -2.538  -0.417   0.000  1.00  0.00     0.337 C 
ATOM     12  O   UNL     1      -2.478  -1.915   0.000  1.00  0.00    -0.246 OA
BRANCH  11  13
ATOM     13  O   UNL     1      -3.866   0.281   0.000  1.00  0.00    -0.466 OA
ATOM     14  C   UNL     1      -5.134  -0.520   0.000  1.00  0.00     0.282 C 
ENDBRANCH  11  13
ENDBRANCH   1  11
BRANCH   4  15
ATOM     15  O   UNL     1       2.534   2.788   0.000  1.00  0.00    -0.358 OA
ATOM     16  H   UNL     1       0.000   0.000   0.000  1.00  0.00     0.215 HD
ENDBRANCH   4  15
BRANCH   8  17
ATOM     17  O   UNL     1       2.726  -3.132   0.000  1.00  0.00    -0.393 OA
ATOM     18  H   UNL     1       0.000   0.000   0.000  1.00  0.00     0.210 HD
ENDBRANCH   8  17
TORSDOF 4
