REMARK SMILES CC(=O)O[C@@H]1[C@@H]2O[C@H]2[C@@](C)(O)C(=O)[C@@H](C)C[C@@H]2O[C@H]2[C@H]2[C@@H]3O[C@]3(C)[C@@H](C)[C@H]3[C@H](Cc4ccccc4)NC(=O)C321
REMARK SMILES IDX 20 1 21 2 22 3 23 4 24 5 25 6 26 7 27 8 28 9 36 10 37 11
REMARK SMILES IDX 38 12 39 13 5 15 4 16 2 17 1 18 3 19 6 20 7 21 8 22 9 23
REMARK SMILES IDX 10 24 11 26 19 28 18 29 17 30 16 31 14 32 15 33 12 34 13 35
REMARK SMILES IDX 29 37 30 38 31 39 35 40 32 41 34 42 33 43
REMARK H PARENT 36 14 11 27
REMARK Flexibility Score:   19.900
ROOT
ATOM      1  C   UNL     1      -0.361   2.112   0.000  1.00  0.00     0.072 C 
ATOM      2  C   UNL     1       0.614   3.252   0.000  1.00  0.00     0.158 C 
ATOM      3  O   UNL     1       1.589   4.392   0.000  1.00  0.00    -0.366 OA
ATOM      4  C   UNL     1       2.088   2.977   0.000  1.00  0.00     0.095 C 
ATOM      5  C   UNL     1       0.674   2.478   0.000  1.00  0.00     0.045 C 
ATOM      6  C   UNL     1       2.588   1.563   0.000  1.00  0.00     0.027 C 
ATOM      7  C   UNL     1       4.062   1.288   0.000  1.00  0.00     0.011 C 
ATOM      8  C   UNL     1       1.612   0.423   0.000  1.00  0.00     0.037 C 
ATOM      9  C   UNL     1       1.807  -1.064   0.000  1.00  0.00     0.091 C 
ATOM     10  N   UNL     1       0.452  -1.709   0.000  1.00  0.00    -0.352 N 
ATOM     11  C   UNL     1      -0.579  -0.620   0.000  1.00  0.00     0.231 C 
ATOM     12  O   UNL     1      -2.067  -0.814   0.000  1.00  0.00    -0.274 OA
ATOM     13  C   UNL     1       0.138   0.698   0.000  1.00  0.00     0.102 C 
ATOM     14  H   UNL     1       0.000   0.000   0.000  1.00  0.00     0.163 HD
ENDROOT
BRANCH  13  15
ATOM     15  C   UNL     1      -0.207  -0.762   0.000  1.00  0.00     0.224 C 
BRANCH  15  16
ATOM     16  O   UNL     1       1.097  -1.504   0.000  1.00  0.00    -0.458 OA
BRANCH  16  17
ATOM     17  C   UNL     1       1.106  -3.004   0.000  1.00  0.00     0.303 C 
ATOM     18  C   UNL     1       2.409  -3.746   0.000  1.00  0.00     0.139 C 
ATOM     19  O   UNL     1      -0.189  -3.762   0.000  1.00  0.00    -0.253 OA
ENDBRANCH  16  17
ENDBRANCH  15  16
BRANCH  15  20
ATOM     20  C   UNL     1      -1.286  -1.804   0.000  1.00  0.00     0.193 C 
ATOM     21  O   UNL     1      -1.768  -3.224   0.000  1.00  0.00    -0.362 OA
ATOM     22  C   UNL     1      -2.757  -2.096   0.000  1.00  0.00     0.190 C 
BRANCH  22  23
ATOM     23  C   UNL     1      -4.153  -1.548   0.000  1.00  0.00     0.149 CG0
ATOM     24  C   UNL     1      -5.590  -1.979   0.000  1.00  0.00     0.054 C 
ATOM     25  G   UNL     1      -5.031  -0.331   0.000  1.00  0.00     0.000 G0
BRANCH  23  26
ATOM     26  O   UNL     1      -4.215  -3.046   0.000  1.00  0.00    -0.379 OA
ATOM     27  H   UNL     1       0.000   0.000   0.000  1.00  0.00     0.212 HD
ENDBRANCH  23  26
ENDBRANCH  22  23
ENDBRANCH  15  20
ENDBRANCH  13  15
BRANCH   1  28
ATOM     28  C   UNL     1      -1.546   3.032   0.000  1.00  0.00     0.154 C 
ATOM     29  O   UNL     1      -2.178   4.393   0.000  1.00  0.00    -0.369 OA
ATOM     30  C   UNL     1      -3.040   3.166   0.000  1.00  0.00     0.148 C 
BRANCH  30  31
ATOM     31  C   UNL     1      -4.369   2.470   0.000  1.00  0.00     0.046 C 
BRANCH  31  32
ATOM     32  C   UNL     1      -5.111   1.167   0.000  1.00  0.00     0.059 C 
ATOM     33  C   UNL     1      -6.571   1.512   0.000  1.00  0.00     0.016 C 
BRANCH  32  34
ATOM     34  C   UNL     1      -5.031  -0.331   0.000  1.00  0.00     0.169 CG0
ATOM     35  O   UNL     1      -6.445  -0.830   0.000  1.00  0.00    -0.296 OA
ATOM     36  G   UNL     1      -4.153  -1.548   0.000  1.00  0.00     0.000 G0
ENDBRANCH  32  34
ENDBRANCH  31  32
ENDBRANCH  30  31
ENDBRANCH   1  28
BRANCH   9  37
ATOM     37  C   UNL     1       3.124  -1.781   0.000  1.00  0.00     0.060 C 
BRANCH  37  38
ATOM     38  C   UNL     1       4.404  -0.999   0.000  1.00  0.00    -0.046 A 
ATOM     39  C   UNL     1       4.366   0.501   0.000  1.00  0.00     0.004 A 
ATOM     40  C   UNL     1       5.721  -1.716   0.000  1.00  0.00     0.004 A 
ATOM     41  C   UNL     1       5.646   1.283   0.000  1.00  0.00     0.000 A 
ATOM     42  C   UNL     1       7.001  -0.934   0.000  1.00  0.00     0.000 A 
ATOM     43  C   UNL     1       6.963   0.566   0.000  1.00  0.00     0.000 A 
ENDBRANCH  37  38
ENDBRANCH   9  37
TORSDOF 5
