REMARK SMILES CC(=O)N1C=C([C@@H]2[C@@H]3C[C@H](CN4CC[C@H](O)CC34)C3CCCCN32)CCC1
REMARK SMILES IDX 7 1 8 2 9 3 10 4 11 5 12 6 13 7 14 8 15 9 17 10 18 11 19 12
REMARK SMILES IDX 20 13 21 14 22 15 23 16 24 17 6 18 4 19 5 20 27 21 26 22
REMARK SMILES IDX 25 23 2 24 1 25 3 26 16 27
REMARK H PARENT 16 28
ROOT
ATOM      1  C   UNL     1       0.262  -0.213   0.000  1.00  0.00     0.089 C 
ATOM      2  C   UNL     1      -1.194   0.145   0.000  1.00  0.00     0.028 C 
ATOM      3  C   UNL     1      -2.233  -0.938   0.000  1.00  0.00     0.013 C 
ATOM      4  C   UNL     1      -1.814  -2.378   0.000  1.00  0.00     0.021 C 
ATOM      5  C   UNL     1      -3.271  -2.021   0.000  1.00  0.00     0.090 C 
ATOM      6  N   UNL     1      -3.689  -0.580   0.000  1.00  0.00    -0.300 NA
ATOM      7  C   UNL     1      -5.146  -0.222   0.000  1.00  0.00     0.087 C 
ATOM      8  C   UNL     1      -5.564   1.218   0.000  1.00  0.00     0.047 C 
ATOM      9  C   UNL     1      -4.526   2.301   0.000  1.00  0.00     0.117 C 
ATOM     10  C   UNL     1      -3.070   1.943   0.000  1.00  0.00     0.051 C 
ATOM     11  C   UNL     1      -2.651   0.502   0.000  1.00  0.00     0.064 C 
ATOM     12  C   UNL     1      -0.357  -2.736   0.000  1.00  0.00     0.061 C 
ATOM     13  C   UNL     1       0.061  -4.177   0.000  1.00  0.00     0.019 C 
ATOM     14  C   UNL     1       1.518  -4.534   0.000  1.00  0.00     0.003 C 
ATOM     15  C   UNL     1       2.556  -3.452   0.000  1.00  0.00     0.016 C 
ATOM     16  C   UNL     1       2.138  -2.011   0.000  1.00  0.00     0.085 C 
ATOM     17  N   UNL     1       0.681  -1.653   0.000  1.00  0.00    -0.293 NA
ENDROOT
BRANCH   1  18
ATOM     18  C   UNL     1       1.300   0.870   0.000  1.00  0.00    -0.036 C 
ATOM     19  N   UNL     1       3.795   1.594   0.000  1.00  0.00    -0.319 N 
ATOM     20  C   UNL     1       2.757   0.512   0.000  1.00  0.00     0.089 C 
ATOM     21  C   UNL     1       3.377   3.035   0.000  1.00  0.00     0.125 C 
ATOM     22  C   UNL     1       1.920   3.393   0.000  1.00  0.00     0.026 C 
ATOM     23  C   UNL     1       0.882   2.310   0.000  1.00  0.00     0.036 C 
BRANCH  19  24
ATOM     24  C   UNL     1       5.252   1.237   0.000  1.00  0.00     0.223 C 
ATOM     25  C   UNL     1       5.671  -0.204   0.000  1.00  0.00     0.115 C 
ATOM     26  O   UNL     1       6.290   2.319   0.000  1.00  0.00    -0.275 OA
ENDBRANCH  19  24
ENDBRANCH   1  18
BRANCH   9  27
ATOM     27  O   UNL     1      -4.945   3.741   0.000  1.00  0.00    -0.393 OA
ATOM     28  H   UNL     1       0.000   0.000   0.000  1.00  0.00     0.210 HD
ENDBRANCH   9  27
TORSDOF 3
