REMARK SMILES O=C(OCc1ccccc1)c1ccccc1O
REMARK SMILES IDX 1 1 2 2 3 3 4 4 5 5 6 6 10 7 7 8 9 9 8 10 11 11 12 12 16 13
REMARK SMILES IDX 13 14 15 15 14 16 17 17
REMARK H PARENT 17 18
ROOT
ATOM      1  O   UNL     1      -1.157  -2.353   0.000  1.00  0.00    -0.246 OA
ATOM      2  C   UNL     1      -1.054  -0.857   0.000  1.00  0.00     0.342 C 
ENDROOT
BRANCH   2   3
ATOM      3  O   UNL     1       0.293  -0.197   0.000  1.00  0.00    -0.457 OA
BRANCH   3   4
ATOM      4  C   UNL     1       1.538  -1.034   0.000  1.00  0.00     0.269 C 
BRANCH   4   5
ATOM      5  C   UNL     1       2.885  -0.374   0.000  1.00  0.00    -0.011 A 
ATOM      6  C   UNL     1       4.130  -1.211   0.000  1.00  0.00     0.007 A 
ATOM      7  C   UNL     1       2.987   1.122   0.000  1.00  0.00     0.007 A 
ATOM      8  C   UNL     1       5.477  -0.552   0.000  1.00  0.00     0.000 A 
ATOM      9  C   UNL     1       4.335   1.782   0.000  1.00  0.00     0.000 A 
ATOM     10  C   UNL     1       5.579   0.945   0.000  1.00  0.00     0.000 A 
ENDBRANCH   4   5
ENDBRANCH   3   4
ENDBRANCH   2   3
BRANCH   2  11
ATOM     11  C   UNL     1      -2.299  -0.020   0.000  1.00  0.00     0.101 A 
ATOM     12  C   UNL     1      -2.197   1.477   0.000  1.00  0.00     0.019 A 
ATOM     13  C   UNL     1      -3.646  -0.679   0.000  1.00  0.00     0.130 A 
ATOM     14  C   UNL     1      -3.442   2.314   0.000  1.00  0.00     0.001 A 
ATOM     15  C   UNL     1      -4.891   0.158   0.000  1.00  0.00     0.047 A 
ATOM     16  C   UNL     1      -4.789   1.654   0.000  1.00  0.00     0.004 A 
BRANCH  13  17
ATOM     17  O   UNL     1      -3.749  -2.176   0.000  1.00  0.00    -0.507 OA
ATOM     18  H   UNL     1       0.000   0.000   0.000  1.00  0.00     0.293 HD
ENDBRANCH  13  17
ENDBRANCH   2  11
TORSDOF 5
