REMARK SMILES CCCc1c(OC)c(=O)c2ccccc2n1C
REMARK SMILES IDX 4 1 5 2 8 3 9 4 10 5 11 6 12 7 13 8 14 9 15 10 16 11 17 12
REMARK SMILES IDX 3 13 2 14 1 15 6 16 7 17
REMARK H PARENT
ROOT
ATOM      1  C   UNL     1      -1.332  -0.004   0.000  1.00  0.00     0.064 A 
ATOM      2  C   UNL     1      -0.733  -1.378   0.000  1.00  0.00     0.186 A 
ATOM      3  C   UNL     1       0.758  -1.547   0.000  1.00  0.00     0.231 A 
ATOM      4  O   UNL     1       1.357  -2.921   0.000  1.00  0.00    -0.285 OA
ATOM      5  C   UNL     1       1.649  -0.340   0.000  1.00  0.00     0.050 A 
ATOM      6  C   UNL     1       3.139  -0.508   0.000  1.00  0.00     0.014 A 
ATOM      7  C   UNL     1       4.030   0.699   0.000  1.00  0.00     0.001 A 
ATOM      8  C   UNL     1       3.431   2.074   0.000  1.00  0.00     0.002 A 
ATOM      9  C   UNL     1       1.940   2.242   0.000  1.00  0.00     0.027 A 
ATOM     10  C   UNL     1       1.049   1.035   0.000  1.00  0.00     0.052 A 
ATOM     11  N   UNL     1      -0.441   1.203   0.000  1.00  0.00    -0.344 N 
ATOM     12  C   UNL     1      -1.041   2.578   0.000  1.00  0.00     0.150 C 
ENDROOT
BRANCH   1  13
ATOM     13  C   UNL     1      -2.823   0.165   0.000  1.00  0.00     0.058 C 
BRANCH  13  14
ATOM     14  C   UNL     1      -3.422   1.540   0.000  1.00  0.00     0.003 C 
ATOM     15  C   UNL     1      -4.913   1.708   0.000  1.00  0.00     0.004 C 
ENDBRANCH  13  14
ENDBRANCH   1  13
BRANCH   2  16
ATOM     16  O   UNL     1      -1.624  -2.585   0.000  1.00  0.00    -0.491 OA
ATOM     17  C   UNL     1      -1.024  -3.960   0.000  1.00  0.00     0.278 C 
ENDBRANCH   2  16
TORSDOF 3
