REMARK SMILES C=C[C@@]1(C)CCC2[C@@](C)(C[C@H](OC(=O)CC(=O)O)[C@H]3C(C)(C)CCC[C@]23C)O1
REMARK SMILES IDX 13 1 14 2 12 3 11 4 3 5 5 6 28 7 6 8 8 9 7 10 10 11 26 12
REMARK SMILES IDX 25 13 19 14 24 15 20 16 23 17 4 18 9 19 27 20 21 21 22 22
REMARK SMILES IDX 2 23 1 24 15 25 16 26 17 27 18 28
REMARK H PARENT 18 29
ROOT
ATOM      1  C   UNL     1       3.317  -0.718   0.000  1.00  0.00     0.317 C 
ATOM      2  O   UNL     1       2.610  -2.041   0.000  1.00  0.00    -0.252 OA
ENDROOT
BRANCH   1   3
ATOM      3  O   UNL     1       2.525   0.555   0.000  1.00  0.00    -0.461 OA
BRANCH   3   4
ATOM      4  C   UNL     1       1.025   0.506   0.000  1.00  0.00     0.183 C 
ATOM      5  C   UNL     1      -3.387  -2.238   0.000  1.00  0.00     0.084 C 
ATOM      6  C   UNL     1      -4.179  -0.964   0.000  1.00  0.00     0.040 C 
ATOM      7  O   UNL     1      -1.888  -2.189   0.000  1.00  0.00    -0.365 OA
ATOM      8  C   UNL     1      -3.472   0.359   0.000  1.00  0.00     0.010 C 
ATOM      9  C   UNL     1      -1.181  -0.866   0.000  1.00  0.00     0.073 C 
ATOM     10  C   UNL     1      -1.973   0.408   0.000  1.00  0.00     0.028 C 
ATOM     11  C   UNL     1       0.318  -0.817   0.000  1.00  0.00     0.081 C 
ATOM     12  C   UNL     1      -1.266   1.731   0.000  1.00  0.00    -0.020 C 
ATOM     13  C   UNL     1      -2.058   3.005   0.000  1.00  0.00     0.007 C 
ATOM     14  C   UNL     1       0.233   1.780   0.000  1.00  0.00     0.042 C 
ATOM     15  C   UNL     1      -1.351   4.328   0.000  1.00  0.00     0.001 C 
ATOM     16  C   UNL     1       0.940   3.103   0.000  1.00  0.00    -0.029 C 
ATOM     17  C   UNL     1       0.148   4.377   0.000  1.00  0.00     0.007 C 
ATOM     18  C   UNL     1      -3.078  -3.706   0.000  1.00  0.00     0.047 C 
ATOM     19  C   UNL     1      -0.389  -2.139   0.000  1.00  0.00     0.043 C 
ATOM     20  C   UNL     1      -2.765   1.682   0.000  1.00  0.00     0.012 C 
ATOM     21  C   UNL     1       2.057   4.104   0.000  1.00  0.00     0.011 C 
ATOM     22  C   UNL     1       2.120   2.177   0.000  1.00  0.00     0.011 C 
BRANCH   5  23
ATOM     23  C   UNL     1      -4.779  -2.797   0.000  1.00  0.00    -0.000 C 
ATOM     24  C   UNL     1      -5.959  -1.871   0.000  1.00  0.00     0.007 C 
ENDBRANCH   5  23
ENDBRANCH   3   4
ENDBRANCH   1   3
BRANCH   1  25
ATOM     25  C   UNL     1       4.816  -0.669   0.000  1.00  0.00     0.244 C 
BRANCH  25  26
ATOM     26  C   UNL     1       5.608  -1.943   0.000  1.00  0.00     0.314 C 
ATOM     27  O   UNL     1       4.901  -3.266   0.000  1.00  0.00    -0.252 OA
BRANCH  26  28
ATOM     28  O   UNL     1       7.107  -1.894   0.000  1.00  0.00    -0.481 OA
ATOM     29  H   UNL     1       0.000   0.000   0.000  1.00  0.00     0.296 HD
ENDBRANCH  26  28
ENDBRANCH  25  26
ENDBRANCH   1  25
TORSDOF 6
