REMARK SMILES C=CC(C)=CC[C@]1(C)[C@H](C)C[C@H](O)[C@@]23C(=C[C@H](OC(=O)CCC)C[C@@H]12)[C@@H](OC(C)=O)O[C@H]3OC(C)=O
REMARK SMILES IDX 7 1 8 2 9 3 10 4 11 5 12 6 14 7 15 8 16 9 17 10 24 11 25 12
REMARK SMILES IDX 26 13 31 14 32 15 6 16 5 17 3 18 4 19 2 20 1 21 13 22 18 24
REMARK SMILES IDX 19 25 20 26 21 27 22 28 23 29 33 30 34 31 35 32 36 33 27 34
REMARK SMILES IDX 28 35 29 36 30 37
REMARK H PARENT 13 23
ROOT
ATOM      1  C   UNL     1      -2.014   0.628   0.000  1.00  0.00    -0.022 C 
ATOM      2  C   UNL     1      -1.677   2.090   0.000  1.00  0.00     0.012 C 
ATOM      3  C   UNL     1      -2.830  -0.630   0.000  1.00  0.00    -0.005 C 
ATOM      4  C   UNL     1      -4.328  -0.553   0.000  1.00  0.00     0.008 C 
ATOM      5  C   UNL     1      -2.148  -1.966   0.000  1.00  0.00     0.037 C 
ATOM      6  C   UNL     1      -0.650  -2.044   0.000  1.00  0.00     0.131 C 
ATOM      7  C   UNL     1       0.166  -0.785   0.000  1.00  0.00     0.089 C 
ATOM      8  C   UNL     1       1.664  -0.863   0.000  1.00  0.00     0.013 C 
ATOM      9  C   UNL     1       2.481   0.396   0.000  1.00  0.00     0.024 C 
ATOM     10  C   UNL     1       1.799   1.732   0.000  1.00  0.00     0.200 C 
ATOM     11  C   UNL     1       0.301   1.809   0.000  1.00  0.00     0.055 C 
ATOM     12  C   UNL     1      -0.515   0.551   0.000  1.00  0.00     0.019 C 
ATOM     13  C   UNL     1       1.311  -0.438   0.000  1.00  0.00     0.343 C 
ATOM     14  O   UNL     1       0.905  -1.032   0.000  1.00  0.00    -0.298 OA
ATOM     15  C   UNL     1       0.562  -0.399   0.000  1.00  0.00     0.327 C 
ENDROOT
BRANCH   1  16
ATOM     16  C   UNL     1      -3.395   1.213   0.000  1.00  0.00     0.035 C 
BRANCH  16  17
ATOM     17  C   UNL     1      -3.578   2.702   0.000  1.00  0.00    -0.023 C 
BRANCH  17  18
ATOM     18  C   UNL     1      -4.960   3.287   0.000  1.00  0.00    -0.056 C 
ATOM     19  C   UNL     1      -5.143   4.776   0.000  1.00  0.00     0.044 C 
BRANCH  18  20
ATOM     20  C   UNL     1      -6.157   2.384   0.000  1.00  0.00    -0.005 C 
ATOM     21  C   UNL     1      -7.538   2.969   0.000  1.00  0.00     0.009 C 
ENDBRANCH  18  20
ENDBRANCH  17  18
ENDBRANCH  16  17
ENDBRANCH   1  16
BRANCH   6  22
ATOM     22  O   UNL     1      -0.311  -3.505   0.000  1.00  0.00    -0.392 OA
ATOM     23  H   UNL     1       0.000   0.000   0.000  1.00  0.00     0.210 HD
ENDBRANCH   6  22
BRANCH  10  24
ATOM     24  O   UNL     1       2.615   2.990   0.000  1.00  0.00    -0.458 OA
BRANCH  24  25
ATOM     25  C   UNL     1       4.113   2.913   0.000  1.00  0.00     0.306 C 
ATOM     26  O   UNL     1       4.795   1.577   0.000  1.00  0.00    -0.252 OA
BRANCH  25  27
ATOM     27  C   UNL     1       4.929   4.171   0.000  1.00  0.00     0.122 C 
BRANCH  27  28
ATOM     28  C   UNL     1       6.427   4.094   0.000  1.00  0.00     0.008 C 
ATOM     29  C   UNL     1       7.243   5.352   0.000  1.00  0.00     0.004 C 
ENDBRANCH  27  28
ENDBRANCH  25  27
ENDBRANCH  24  25
ENDBRANCH  10  24
BRANCH  15  30
ATOM     30  O   UNL     1      -1.819  -2.575   0.000  1.00  0.00    -0.435 OA
BRANCH  30  31
ATOM     31  C   UNL     1      -2.206  -4.024   0.000  1.00  0.00     0.304 C 
ATOM     32  C   UNL     1      -3.655  -4.414   0.000  1.00  0.00     0.139 C 
ATOM     33  O   UNL     1      -1.145  -5.085   0.000  1.00  0.00    -0.253 OA
ENDBRANCH  30  31
ENDBRANCH  15  30
BRANCH  13  34
ATOM     34  O   UNL     1       3.454  -2.848   0.000  1.00  0.00    -0.432 OA
BRANCH  34  35
ATOM     35  C   UNL     1       3.690  -4.330   0.000  1.00  0.00     0.305 C 
ATOM     36  C   UNL     1       5.091  -4.866   0.000  1.00  0.00     0.139 C 
ATOM     37  O   UNL     1       2.525  -5.274   0.000  1.00  0.00    -0.253 OA
ENDBRANCH  34  35
ENDBRANCH  13  34
TORSDOF 13
