REMARK SMILES CC(C)=CCCC(C)=CC(=O)c1cc(O)ccc1O
REMARK SMILES IDX 7 1 8 2 6 3 5 4 4 5 2 6 1 7 3 8 9 9 10 10 11 11 12 12 13 13
REMARK SMILES IDX 18 14 14 15 17 16 16 17 19 18 15 20
REMARK H PARENT 19 19 15 21
ROOT
ATOM      1  C   UNL     1       1.170  -1.517   0.000  1.00  0.00    -0.069 C 
ATOM      2  C   UNL     1       1.761  -2.896   0.000  1.00  0.00     0.039 C 
ENDROOT
BRANCH   1   3
ATOM      3  C   UNL     1       2.069  -0.316   0.000  1.00  0.00     0.035 C 
BRANCH   3   4
ATOM      4  C   UNL     1       3.559  -0.494   0.000  1.00  0.00     0.032 C 
BRANCH   4   5
ATOM      5  C   UNL     1       4.457   0.707   0.000  1.00  0.00    -0.028 C 
BRANCH   5   6
ATOM      6  C   UNL     1       5.947   0.529   0.000  1.00  0.00    -0.080 C 
ATOM      7  C   UNL     1       6.846   1.730   0.000  1.00  0.00     0.039 C 
ATOM      8  C   UNL     1       6.537  -0.850   0.000  1.00  0.00     0.039 C 
ENDBRANCH   5   6
ENDBRANCH   4   5
ENDBRANCH   3   4
ENDBRANCH   1   3
BRANCH   1   9
ATOM      9  C   UNL     1      -0.319  -1.339   0.000  1.00  0.00     0.051 C 
BRANCH   9  10
ATOM     10  C   UNL     1      -0.910   0.040   0.000  1.00  0.00     0.189 C 
ATOM     11  O   UNL     1      -0.011   1.241   0.000  1.00  0.00    -0.289 OA
BRANCH  10  12
ATOM     12  C   UNL     1      -2.399   0.218   0.000  1.00  0.00     0.067 A 
ATOM     13  C   UNL     1      -3.298  -0.983   0.000  1.00  0.00     0.062 A 
ATOM     14  C   UNL     1      -2.990   1.597   0.000  1.00  0.00     0.127 A 
ATOM     15  C   UNL     1      -4.787  -0.805   0.000  1.00  0.00     0.116 A 
ATOM     16  C   UNL     1      -4.479   1.774   0.000  1.00  0.00     0.051 A 
ATOM     17  C   UNL     1      -5.378   0.574   0.000  1.00  0.00     0.050 A 
BRANCH  14  18
ATOM     18  O   UNL     1      -2.091   2.797   0.000  1.00  0.00    -0.507 OA
ATOM     19  H   UNL     1       0.000   0.000   0.000  1.00  0.00     0.293 HD
ENDBRANCH  14  18
BRANCH  15  20
ATOM     20  O   UNL     1      -5.686  -2.006   0.000  1.00  0.00    -0.508 OA
ATOM     21  H   UNL     1       0.000   0.000   0.000  1.00  0.00     0.293 HD
ENDBRANCH  15  20
ENDBRANCH  10  12
ENDBRANCH   9  10
ENDBRANCH   1   9
TORSDOF 9
