REMARK SMILES O=c1ccc2ccc(O)cc2o1
REMARK SMILES IDX 1 1 2 2 3 3 4 4 5 5 6 6 7 7 8 8 10 9 11 10 12 11 9 12
REMARK H PARENT 9 13
ROOT
ATOM      1  O   UNL     1      -3.897  -1.250   0.000  1.00  0.00    -0.246 OA
ATOM      2  C   UNL     1      -2.598  -0.500   0.000  1.00  0.00     0.336 A 
ATOM      3  C   UNL     1      -2.598   1.000   0.000  1.00  0.00     0.094 A 
ATOM      4  C   UNL     1      -1.299   1.750   0.000  1.00  0.00     0.019 A 
ATOM      5  C   UNL     1      -0.000   1.000   0.000  1.00  0.00     0.018 A 
ATOM      6  C   UNL     1       1.299   1.750   0.000  1.00  0.00     0.016 A 
ATOM      7  C   UNL     1       2.598   1.000   0.000  1.00  0.00     0.047 A 
ATOM      8  C   UNL     1       2.598  -0.500   0.000  1.00  0.00     0.119 A 
ATOM      9  C   UNL     1       1.299  -1.250   0.000  1.00  0.00     0.094 A 
ATOM     10  C   UNL     1      -0.000  -0.500   0.000  1.00  0.00     0.142 A 
ATOM     11  O   UNL     1      -1.299  -1.250   0.000  1.00  0.00    -0.423 OA
ENDROOT
BRANCH   8  12
ATOM     12  O   UNL     1       3.897  -1.250   0.000  1.00  0.00    -0.508 OA
ATOM     13  H   UNL     1       0.000   0.000   0.000  1.00  0.00     0.293 HD
ENDBRANCH   8  12
TORSDOF 1
