REMARK SMILES C[C@H](C/C=C/C(C)(C)O)[C@H]1CC[C@@]2(C)C3CCC4C(C)(C)[C@@H](O)CC[C@@]45C[C@@]35CC[C@]12C
REMARK SMILES IDX 3 1 2 2 1 3 10 4 11 5 31 6 12 7 30 8 13 9 29 10 15 11 28 12
REMARK SMILES IDX 16 13 27 14 26 15 17 16 25 17 18 18 24 19 19 20 22 21 32 22
REMARK SMILES IDX 14 23 20 24 21 25 23 26 4 28 5 29 6 30 7 31 8 32 9 33
REMARK H PARENT 23 27 9 34
ROOT
ATOM      1  C   UNL     1      -3.945   0.213   0.000  1.00  0.00     0.030 C 
ENDROOT
BRANCH   1   2
ATOM      2  C   UNL     1      -3.583   1.669   0.000  1.00  0.00    -0.007 C 
ATOM      3  C   UNL     1      -4.663   2.710   0.000  1.00  0.00     0.008 C 
BRANCH   2   4
ATOM      4  C   UNL     1      -2.142   2.083   0.000  1.00  0.00    -0.001 C 
ATOM      5  C   UNL     1      -1.629   3.493   0.000  1.00  0.00     0.005 C 
ATOM      6  C   UNL     1      -0.959   1.160   0.000  1.00  0.00    -0.024 C 
ATOM      7  C   UNL     1      -0.130   3.441   0.000  1.00  0.00     0.008 C 
ATOM      8  C   UNL     1      -0.854  -0.336   0.000  1.00  0.00     0.008 C 
ATOM      9  C   UNL     1       0.284   2.000   0.000  1.00  0.00    -0.024 C 
ATOM     10  C   UNL     1       0.495  -0.993   0.000  1.00  0.00     0.008 C 
ATOM     11  C   UNL     1       1.633   1.343   0.000  1.00  0.00     0.002 C 
ATOM     12  C   UNL     1       1.738  -0.153   0.000  1.00  0.00    -0.020 C 
ATOM     13  C   UNL     1       2.876   2.182   0.000  1.00  0.00     0.005 C 
ATOM     14  C   UNL     1       1.843  -1.650   0.000  1.00  0.00     0.015 C 
ATOM     15  C   UNL     1       3.087  -0.810   0.000  1.00  0.00    -0.020 C 
ATOM     16  C   UNL     1       4.224   1.525   0.000  1.00  0.00     0.005 C 
ATOM     17  C   UNL     1       3.192  -2.307   0.000  1.00  0.00     0.010 C 
ATOM     18  C   UNL     1       4.330   0.029   0.000  1.00  0.00     0.004 C 
ATOM     19  C   UNL     1       4.540  -2.963   0.000  1.00  0.00     0.033 C 
ATOM     20  C   UNL     1       5.678  -0.628   0.000  1.00  0.00    -0.006 C 
ATOM     21  C   UNL     1       5.784  -2.124   0.000  1.00  0.00     0.120 C 
ATOM     22  C   UNL     1      -2.283   0.455   0.000  1.00  0.00     0.012 C 
ATOM     23  C   UNL     1       1.433   2.965   0.000  1.00  0.00     0.012 C 
ATOM     24  C   UNL     1       7.170  -0.784   0.000  1.00  0.00     0.014 C 
ATOM     25  C   UNL     1       6.091   0.814   0.000  1.00  0.00     0.014 C 
BRANCH  21  26
ATOM     26  O   UNL     1       7.132  -2.781   0.000  1.00  0.00    -0.393 OA
ATOM     27  H   UNL     1       0.000   0.000   0.000  1.00  0.00     0.210 HD
ENDBRANCH  21  26
ENDBRANCH   2   4
ENDBRANCH   1   2
BRANCH   1  28
ATOM     28  C   UNL     1      -5.387  -0.201   0.000  1.00  0.00    -0.028 C 
BRANCH  28  29
ATOM     29  C   UNL     1      -5.749  -1.657   0.000  1.00  0.00     0.003 C 
BRANCH  29  30
ATOM     30  C   UNL     1      -7.191  -2.071   0.000  1.00  0.00     0.077 C 
ATOM     31  C   UNL     1      -7.605  -0.629   0.000  1.00  0.00     0.046 C 
ATOM     32  C   UNL     1      -6.777  -3.512   0.000  1.00  0.00     0.046 C 
BRANCH  30  33
ATOM     33  O   UNL     1      -8.633  -2.485   0.000  1.00  0.00    -0.386 OA
ATOM     34  H   UNL     1       0.000   0.000   0.000  1.00  0.00     0.211 HD
ENDBRANCH  30  33
ENDBRANCH  29  30
ENDBRANCH  28  29
ENDBRANCH   1  28
TORSDOF 7
