REMARK SMILES COC(=O)CCCCCCCCCCCCc1ccccc1
REMARK SMILES IDX 9 1 8 2 7 3 6 4 5 5 3 6 4 7 2 8 1 9 10 10 11 11 12 12 13 13
REMARK SMILES IDX 14 14 15 15 16 16 17 17 18 18 22 19 19 20 21 21 20 22
REMARK H PARENT
ROOT
ATOM      1  C   UNL     1      -2.875   0.367   0.000  1.00  0.00     0.000 C 
ENDROOT
BRANCH   1   2
ATOM      2  C   UNL     1      -4.222  -0.293   0.000  1.00  0.00     0.000 C 
BRANCH   2   3
ATOM      3  C   UNL     1      -5.467   0.544   0.000  1.00  0.00     0.001 C 
BRANCH   3   4
ATOM      4  C   UNL     1      -6.814  -0.116   0.000  1.00  0.00     0.012 C 
BRANCH   4   5
ATOM      5  C   UNL     1      -8.059   0.721   0.000  1.00  0.00     0.123 C 
BRANCH   5   6
ATOM      6  C   UNL     1      -9.406   0.061   0.000  1.00  0.00     0.305 C 
ATOM      7  O   UNL     1      -9.508  -1.435   0.000  1.00  0.00    -0.252 OA
BRANCH   6   8
ATOM      8  O   UNL     1     -10.651   0.898   0.000  1.00  0.00    -0.469 OA
ATOM      9  C   UNL     1     -11.998   0.238   0.000  1.00  0.00     0.282 C 
ENDBRANCH   6   8
ENDBRANCH   5   6
ENDBRANCH   4   5
ENDBRANCH   3   4
ENDBRANCH   2   3
ENDBRANCH   1   2
BRANCH   1  10
ATOM     10  C   UNL     1      -1.630  -0.470   0.000  1.00  0.00     0.000 C 
BRANCH  10  11
ATOM     11  C   UNL     1      -0.283   0.190   0.000  1.00  0.00     0.000 C 
BRANCH  11  12
ATOM     12  C   UNL     1       0.962  -0.647   0.000  1.00  0.00     0.000 C 
BRANCH  12  13
ATOM     13  C   UNL     1       2.309   0.013   0.000  1.00  0.00     0.000 C 
BRANCH  13  14
ATOM     14  C   UNL     1       3.554  -0.824   0.000  1.00  0.00     0.000 C 
BRANCH  14  15
ATOM     15  C   UNL     1       4.901  -0.164   0.000  1.00  0.00     0.005 C 
BRANCH  15  16
ATOM     16  C   UNL     1       6.146  -1.000   0.000  1.00  0.00     0.035 C 
BRANCH  16  17
ATOM     17  C   UNL     1       7.493  -0.341   0.000  1.00  0.00    -0.048 A 
ATOM     18  C   UNL     1       7.595   1.156   0.000  1.00  0.00     0.004 A 
ATOM     19  C   UNL     1       8.738  -1.177   0.000  1.00  0.00     0.004 A 
ATOM     20  C   UNL     1       8.943   1.816   0.000  1.00  0.00     0.000 A 
ATOM     21  C   UNL     1      10.085  -0.518   0.000  1.00  0.00     0.000 A 
ATOM     22  C   UNL     1      10.187   0.979   0.000  1.00  0.00     0.000 A 
ENDBRANCH  16  17
ENDBRANCH  15  16
ENDBRANCH  14  15
ENDBRANCH  13  14
ENDBRANCH  12  13
ENDBRANCH  11  12
ENDBRANCH  10  11
ENDBRANCH   1  10
TORSDOF 14
