REMARK SMILES COc1ccc(-c2coc3c(OC)c(O)ccc3c2=O)cc1OC
REMARK SMILES IDX 7 1 8 2 9 3 10 4 11 5 14 6 16 7 17 8 18 9 19 10 20 11 6 12
REMARK SMILES IDX 3 13 4 14 22 15 5 16 21 17 2 18 1 19 23 20 24 21 12 22 13 23
REMARK SMILES IDX 15 24
REMARK H PARENT 15 25
ROOT
ATOM      1  C   UNL     1      -0.161  -0.036   0.000  1.00  0.00     0.065 A 
ATOM      2  C   UNL     1       0.439  -1.411   0.000  1.00  0.00     0.208 A 
ATOM      3  O   UNL     1       1.929  -1.579   0.000  1.00  0.00    -0.459 OA
ATOM      4  C   UNL     1       2.820  -0.372   0.000  1.00  0.00     0.183 A 
ATOM      5  C   UNL     1       4.311  -0.539   0.000  1.00  0.00     0.204 A 
ATOM      6  C   UNL     1       5.201   0.668   0.000  1.00  0.00     0.161 A 
ATOM      7  C   UNL     1       4.601   2.043   0.000  1.00  0.00     0.051 A 
ATOM      8  C   UNL     1       3.110   2.210   0.000  1.00  0.00     0.020 A 
ATOM      9  C   UNL     1       2.220   1.003   0.000  1.00  0.00     0.069 A 
ATOM     10  C   UNL     1       0.729   1.171   0.000  1.00  0.00     0.200 A 
ATOM     11  O   UNL     1       0.129   2.546   0.000  1.00  0.00    -0.288 OA
ENDROOT
BRANCH   1  12
ATOM     12  C   UNL     1      -1.652   0.131   0.000  1.00  0.00    -0.007 A 
ATOM     13  C   UNL     1      -4.633   0.467   0.000  1.00  0.00     0.160 A 
ATOM     14  C   UNL     1      -3.743   1.674   0.000  1.00  0.00     0.051 A 
ATOM     15  C   UNL     1      -4.033  -0.908   0.000  1.00  0.00     0.161 A 
ATOM     16  C   UNL     1      -2.252   1.506   0.000  1.00  0.00     0.013 A 
ATOM     17  C   UNL     1      -2.542  -1.076   0.000  1.00  0.00     0.059 A 
BRANCH  13  18
ATOM     18  O   UNL     1      -6.124   0.634   0.000  1.00  0.00    -0.493 OA
ATOM     19  C   UNL     1      -6.724   2.009   0.000  1.00  0.00     0.278 C 
ENDBRANCH  13  18
BRANCH  15  20
ATOM     20  O   UNL     1      -4.923  -2.115   0.000  1.00  0.00    -0.493 OA
ATOM     21  C   UNL     1      -4.323  -3.490   0.000  1.00  0.00     0.278 C 
ENDBRANCH  15  20
ENDBRANCH   1  12
BRANCH   5  22
ATOM     22  O   UNL     1       4.911  -1.914   0.000  1.00  0.00    -0.490 OA
ATOM     23  C   UNL     1       4.020  -3.121   0.000  1.00  0.00     0.278 C 
ENDBRANCH   5  22
BRANCH   6  24
ATOM     24  O   UNL     1       6.692   0.500   0.000  1.00  0.00    -0.504 OA
ATOM     25  H   UNL     1       0.000   0.000   0.000  1.00  0.00     0.293 HD
ENDBRANCH   6  24
TORSDOF 5
