REMARK SMILES C=C1C(=O)O[C@@H]2/C=C(/CO)C3=CC(=O)[C@@](C)(C[C@@H](OC(=O)C(C)=CC)[C@@H]12)O3
REMARK SMILES IDX 18 1 26 2 2 3 3 4 5 5 6 6 1 7 4 8 7 9 17 11 15 12 13 13
REMARK SMILES IDX 27 14 12 15 11 16 16 17 14 18 8 19 9 21 10 22 19 24 20 25
REMARK SMILES IDX 21 26 22 27 23 28 24 29 25 30
REMARK H PARENT 10 23
REMARK Flexibility Score:   24.900
ROOT
ATOM      1  C   UNL     1      -0.569   0.036   0.000  1.00  0.00     0.193 C 
ENDROOT
BRANCH   1   2
ATOM      2  C   UNL     1      -0.060   1.447   0.000  1.00  0.00     0.112 C 
ATOM      3  C   UNL     1      -1.177   2.448   0.000  1.00  0.00     0.041 C 
ATOM      4  C   UNL     1      -0.571   3.820   0.000  1.00  0.00     0.334 C 
ATOM      5  O   UNL     1       0.921   3.667   0.000  1.00  0.00    -0.454 OA
ATOM      6  C   UNL     1       1.237   2.200   0.000  1.00  0.00     0.212 C 
ATOM      7  C   UNL     1      -2.644   2.132   0.000  1.00  0.00     0.021 C 
ATOM      8  O   UNL     1      -1.324   5.117   0.000  1.00  0.00    -0.247 OA
BRANCH   6   9
ATOM      9  C   UNL     1       2.715   1.944   0.000  1.00  0.00     0.028 CG0
ATOM     10  G   UNL     1       3.682   0.797   0.000  1.00  0.00     0.000 G0
ENDBRANCH   6   9
ENDBRANCH   1   2
BRANCH   1  11
ATOM     11  C   UNL     1      -0.052  -1.372   0.000  1.00  0.00     0.103 C 
BRANCH  11  12
ATOM     12  C   UNL     1       1.248  -2.119   0.000  1.00  0.00     0.172 C 
ATOM     13  C   UNL     1       2.366  -3.119   0.000  1.00  0.00     0.202 C 
ATOM     14  O   UNL     1       1.855  -0.747   0.000  1.00  0.00    -0.479 OA
ATOM     15  C   UNL     1       3.663  -2.366   0.000  1.00  0.00     0.098 C 
ATOM     16  C   UNL     1       3.347  -0.900   0.000  1.00  0.00     0.129 C 
ATOM     17  C   UNL     1      -0.218  -2.434   0.000  1.00  0.00     0.066 C 
ATOM     18  O   UNL     1       2.213  -4.612   0.000  1.00  0.00    -0.290 OA
BRANCH  16  19
ATOM     19  C   UNL     1       3.682   0.797   0.000  1.00  0.00     0.019 CG0
ATOM     20  G   UNL     1       2.715   1.944   0.000  1.00  0.00     0.000 G0
BRANCH  19  21
ATOM     21  C   UNL     1       5.090   1.314   0.000  1.00  0.00     0.195 C 
BRANCH  21  22
ATOM     22  O   UNL     1       6.242   0.353   0.000  1.00  0.00    -0.392 OA
ATOM     23  H   UNL     1       0.000   0.000   0.000  1.00  0.00     0.211 HD
ENDBRANCH  21  22
ENDBRANCH  19  21
ENDBRANCH  16  19
ENDBRANCH  11  12
ENDBRANCH   1  11
BRANCH   1  24
ATOM     24  O   UNL     1      -2.069   0.032   0.000  1.00  0.00    -0.458 OA
BRANCH  24  25
ATOM     25  C   UNL     1      -2.816  -1.269   0.000  1.00  0.00     0.333 C 
ATOM     26  O   UNL     1      -2.062  -2.566   0.000  1.00  0.00    -0.247 OA
BRANCH  25  27
ATOM     27  C   UNL     1      -4.316  -1.273   0.000  1.00  0.00     0.030 C 
ATOM     28  C   UNL     1      -5.062  -2.574   0.000  1.00  0.00     0.052 C 
BRANCH  27  29
ATOM     29  C   UNL     1      -5.069   0.024   0.000  1.00  0.00    -0.020 C 
ATOM     30  C   UNL     1      -6.569   0.020   0.000  1.00  0.00     0.036 C 
ENDBRANCH  27  29
ENDBRANCH  25  27
ENDBRANCH  24  25
ENDBRANCH   1  24
TORSDOF 6
