REMARK SMILES CC1(C)CC[C@]2(C)CC[C@]3(C)C(=CC(=O)C4[C@@]5(C)CC[C@H](O)C(C)(C)C5CC[C@]43C)C2C1
REMARK SMILES IDX 1 1 2 2 3 3 4 4 5 5 6 6 7 7 8 8 9 9 10 10 11 11 12 12 13 13
REMARK SMILES IDX 14 14 15 15 16 16 17 17 18 18 19 19 20 20 21 21 23 22 24 23
REMARK SMILES IDX 25 24 26 25 27 26 28 27 29 28 30 29 31 30 32 31 22 32
REMARK H PARENT 22 33
ROOT
ATOM      1  C   UNL     1      -5.416  -2.754   0.000  1.00  0.00     0.011 C 
ATOM      2  C   UNL     1      -5.568  -1.262   0.000  1.00  0.00    -0.035 C 
ATOM      3  C   UNL     1      -7.011  -1.671   0.000  1.00  0.00     0.011 C 
ATOM      4  C   UNL     1      -6.221   0.089   0.000  1.00  0.00     0.007 C 
ATOM      5  C   UNL     1      -5.378   1.329   0.000  1.00  0.00     0.008 C 
ATOM      6  C   UNL     1      -3.882   1.220   0.000  1.00  0.00    -0.026 C 
ATOM      7  C   UNL     1      -4.535   2.570   0.000  1.00  0.00     0.012 C 
ATOM      8  C   UNL     1      -3.039   2.461   0.000  1.00  0.00     0.008 C 
ATOM      9  C   UNL     1      -1.544   2.352   0.000  1.00  0.00     0.012 C 
ATOM     10  C   UNL     1      -0.890   1.001   0.000  1.00  0.00    -0.005 C 
ATOM     11  C   UNL     1      -0.237  -0.349   0.000  1.00  0.00     0.017 C 
ATOM     12  C   UNL     1      -1.733  -0.240   0.000  1.00  0.00    -0.057 C 
ATOM     13  C   UNL     1      -1.080  -1.590   0.000  1.00  0.00     0.047 C 
ATOM     14  C   UNL     1       0.416  -1.699   0.000  1.00  0.00     0.159 C 
ATOM     15  O   UNL     1       1.069  -3.050   0.000  1.00  0.00    -0.295 OA
ATOM     16  C   UNL     1       1.259  -0.458   0.000  1.00  0.00     0.073 C 
ATOM     17  C   UNL     1       2.755  -0.568   0.000  1.00  0.00    -0.018 C 
ATOM     18  C   UNL     1       1.912  -1.809   0.000  1.00  0.00     0.012 C 
ATOM     19  C   UNL     1       3.408  -1.918   0.000  1.00  0.00     0.010 C 
ATOM     20  C   UNL     1       4.904  -2.027   0.000  1.00  0.00     0.033 C 
ATOM     21  C   UNL     1       5.747  -0.787   0.000  1.00  0.00     0.120 C 
ATOM     22  C   UNL     1       5.094   0.564   0.000  1.00  0.00    -0.006 C 
ATOM     23  C   UNL     1       4.942   2.056   0.000  1.00  0.00     0.014 C 
ATOM     24  C   UNL     1       6.537   0.973   0.000  1.00  0.00     0.014 C 
ATOM     25  C   UNL     1       3.598   0.673   0.000  1.00  0.00     0.004 C 
ATOM     26  C   UNL     1       2.945   2.023   0.000  1.00  0.00     0.005 C 
ATOM     27  C   UNL     1       1.448   2.133   0.000  1.00  0.00     0.009 C 
ATOM     28  C   UNL     1       0.606   0.892   0.000  1.00  0.00    -0.013 C 
ATOM     29  C   UNL     1      -0.048   2.242   0.000  1.00  0.00     0.013 C 
ATOM     30  C   UNL     1      -3.229  -0.130   0.000  1.00  0.00     0.022 C 
ATOM     31  C   UNL     1      -4.072  -1.371   0.000  1.00  0.00     0.015 C 
ENDROOT
BRANCH  21  32
ATOM     32  O   UNL     1       7.243  -0.896   0.000  1.00  0.00    -0.393 OA
ATOM     33  H   UNL     1       0.000   0.000   0.000  1.00  0.00     0.210 HD
ENDBRANCH  21  32
TORSDOF 1
