REMARK SMILES C=C(C)[C@H]1Cc2c(cc(O)c3c2O[C@@H]2COc4cc(OC)c(OC)cc4[C@]2(O)C3=O)O1
REMARK SMILES IDX 4 1 5 2 6 3 7 4 8 5 9 6 11 7 12 8 13 9 14 10 15 11 16 12
REMARK SMILES IDX 17 13 18 14 19 15 22 16 25 17 26 18 27 19 29 20 30 21 31 22
REMARK SMILES IDX 2 23 1 24 3 25 10 26 28 28 23 30 24 31 20 32 21 33
REMARK H PARENT 10 27 28 29
ROOT
ATOM      1  C   UNL     1      -5.941  -0.439   0.000  1.00  0.00     0.203 C 
ATOM      2  C   UNL     1      -4.606  -1.122   0.000  1.00  0.00     0.093 C 
ATOM      3  C   UNL     1      -3.544  -0.063   0.000  1.00  0.00     0.041 A 
ATOM      4  C   UNL     1      -4.223   1.275   0.000  1.00  0.00     0.131 A 
ATOM      5  C   UNL     1      -3.404   2.532   0.000  1.00  0.00     0.094 A 
ATOM      6  C   UNL     1      -1.906   2.451   0.000  1.00  0.00     0.134 A 
ATOM      7  C   UNL     1      -1.227   1.113   0.000  1.00  0.00     0.106 A 
ATOM      8  C   UNL     1      -2.046  -0.143   0.000  1.00  0.00     0.141 A 
ATOM      9  O   UNL     1      -1.367  -1.481   0.000  1.00  0.00    -0.482 OA
ATOM     10  C   UNL     1       0.131  -1.561   0.000  1.00  0.00     0.255 C 
ATOM     11  C   UNL     1       0.810  -2.899   0.000  1.00  0.00     0.278 C 
ATOM     12  O   UNL     1       2.308  -2.979   0.000  1.00  0.00    -0.489 OA
ATOM     13  C   UNL     1       3.127  -1.723   0.000  1.00  0.00     0.130 A 
ATOM     14  C   UNL     1       4.625  -1.803   0.000  1.00  0.00     0.097 A 
ATOM     15  C   UNL     1       5.443  -0.546   0.000  1.00  0.00     0.164 A 
ATOM     16  C   UNL     1       4.764   0.791   0.000  1.00  0.00     0.161 A 
ATOM     17  C   UNL     1       3.267   0.872   0.000  1.00  0.00     0.061 A 
ATOM     18  C   UNL     1       2.448  -0.385   0.000  1.00  0.00     0.041 A 
ATOM     19  C   UNL     1       0.950  -0.304   0.000  1.00  0.00     0.197 C 
ATOM     20  C   UNL     1       0.271   1.033   0.000  1.00  0.00     0.210 C 
ATOM     21  O   UNL     1       1.090   2.290   0.000  1.00  0.00    -0.290 OA
ATOM     22  O   UNL     1      -5.705   1.042   0.000  1.00  0.00    -0.485 OA
ENDROOT
BRANCH   1  23
ATOM     23  C   UNL     1      -7.279  -1.118   0.000  1.00  0.00    -0.040 C 
ATOM     24  C   UNL     1      -7.359  -2.616   0.000  1.00  0.00     0.011 C 
ATOM     25  C   UNL     1      -8.536  -0.299   0.000  1.00  0.00     0.043 C 
ENDBRANCH   1  23
BRANCH   6  26
ATOM     26  O   UNL     1      -1.087   3.708   0.000  1.00  0.00    -0.507 OA
ATOM     27  H   UNL     1       0.000   0.000   0.000  1.00  0.00     0.293 HD
ENDBRANCH   6  26
BRANCH  19  28
ATOM     28  O   UNL     1       1.769   0.952   0.000  1.00  0.00    -0.373 OA
ATOM     29  H   UNL     1       0.000   0.000   0.000  1.00  0.00     0.212 HD
ENDBRANCH  19  28
BRANCH  16  30
ATOM     30  O   UNL     1       5.583   2.048   0.000  1.00  0.00    -0.493 OA
ATOM     31  C   UNL     1       7.081   1.967   0.000  1.00  0.00     0.278 C 
ENDBRANCH  16  30
BRANCH  15  32
ATOM     32  O   UNL     1       6.941  -0.627   0.000  1.00  0.00    -0.493 OA
ATOM     33  C   UNL     1       7.620  -1.964   0.000  1.00  0.00     0.278 C 
ENDBRANCH  15  32
TORSDOF 5
