REMARK SMILES C=CC[C@]12C=C(OC)C(=O)[C@@H](C1=O)[C@H](c1ccc(O)c(OC)c1)[C@H]2C
REMARK SMILES IDX 4 1 5 2 6 3 9 4 10 5 11 6 12 7 13 8 14 9 24 10 25 11 3 12
REMARK SMILES IDX 2 13 1 14 7 15 8 16 15 17 16 18 23 19 17 20 20 21 18 22
REMARK SMILES IDX 21 23 22 24 19 25
REMARK H PARENT 19 26
ROOT
ATOM      1  C   UNL     1       2.021  -0.806   0.000  1.00  0.00     0.058 C 
ATOM      2  C   UNL     1       3.376  -0.162   0.000  1.00  0.00     0.038 C 
ATOM      3  C   UNL     1       3.496   1.333   0.000  1.00  0.00     0.159 C 
ATOM      4  C   UNL     1       2.261   2.184   0.000  1.00  0.00     0.208 C 
ATOM      5  O   UNL     1       2.381   3.680   0.000  1.00  0.00    -0.290 OA
ATOM      6  C   UNL     1       0.906   1.541   0.000  1.00  0.00     0.140 C 
ATOM      7  C   UNL     1       0.786   0.046   0.000  1.00  0.00     0.155 C 
ATOM      8  O   UNL     1      -0.569  -0.598   0.000  1.00  0.00    -0.298 OA
ATOM      9  C   UNL     1      -0.110   0.356   0.000  1.00  0.00     0.042 C 
ATOM     10  C   UNL     1       0.533  -0.999   0.000  1.00  0.00     0.012 C 
ATOM     11  C   UNL     1      -0.184  -2.316   0.000  1.00  0.00     0.010 C 
ENDROOT
BRANCH   1  12
ATOM     12  C   UNL     1       1.901  -2.301   0.000  1.00  0.00     0.046 C 
BRANCH  12  13
ATOM     13  C   UNL     1       3.136  -3.153   0.000  1.00  0.00    -0.033 C 
ATOM     14  C   UNL     1       3.016  -4.648   0.000  1.00  0.00     0.004 C 
ENDBRANCH  12  13
ENDBRANCH   1  12
BRANCH   3  15
ATOM     15  O   UNL     1       4.851   1.976   0.000  1.00  0.00    -0.493 OA
ATOM     16  C   UNL     1       6.086   1.125   0.000  1.00  0.00     0.278 C 
ENDBRANCH   3  15
BRANCH   9  17
ATOM     17  C   UNL     1      -1.585   0.631   0.000  1.00  0.00    -0.039 A 
ATOM     18  C   UNL     1      -2.083   2.046   0.000  1.00  0.00     0.008 A 
ATOM     19  C   UNL     1      -2.561  -0.508   0.000  1.00  0.00     0.054 A 
ATOM     20  C   UNL     1      -3.558   2.322   0.000  1.00  0.00     0.050 A 
ATOM     21  C   UNL     1      -4.035  -0.232   0.000  1.00  0.00     0.160 A 
ATOM     22  C   UNL     1      -4.534   1.183   0.000  1.00  0.00     0.157 A 
BRANCH  21  23
ATOM     23  O   UNL     1      -5.011  -1.371   0.000  1.00  0.00    -0.493 OA
ATOM     24  C   UNL     1      -4.513  -2.786   0.000  1.00  0.00     0.278 C 
ENDBRANCH  21  23
BRANCH  22  25
ATOM     25  O   UNL     1      -6.008   1.458   0.000  1.00  0.00    -0.504 OA
ATOM     26  H   UNL     1       0.000   0.000   0.000  1.00  0.00     0.293 HD
ENDBRANCH  22  25
ENDBRANCH   9  17
TORSDOF 6
