REMARK SMILES COc1ccc([C@H]2c3cc(OC)c(OC)cc3C[C@@H](C)[C@@H]2C)cc1OC
REMARK SMILES IDX 7 1 8 2 9 3 10 4 13 5 16 6 17 7 18 8 19 9 20 10 21 11 22 12
REMARK SMILES IDX 6 13 3 14 4 15 24 16 5 17 23 18 2 19 1 20 25 21 26 22 11 23
REMARK SMILES IDX 12 24 14 25 15 26
REMARK H PARENT
ROOT
ATOM      1  C   UNL     1      -0.039   1.503   0.000  1.00  0.00     0.053 C 
ATOM      2  C   UNL     1       1.228   0.701   0.000  1.00  0.00    -0.033 A 
ATOM      3  C   UNL     1       1.168  -0.798   0.000  1.00  0.00     0.055 A 
ATOM      4  C   UNL     1       2.436  -1.599   0.000  1.00  0.00     0.161 A 
ATOM      5  C   UNL     1       3.764  -0.902   0.000  1.00  0.00     0.161 A 
ATOM      6  C   UNL     1       3.824   0.596   0.000  1.00  0.00     0.054 A 
ATOM      7  C   UNL     1       2.557   1.398   0.000  1.00  0.00    -0.040 A 
ATOM      8  C   UNL     1       2.617   2.897   0.000  1.00  0.00     0.039 C 
ATOM      9  C   UNL     1       1.349   3.699   0.000  1.00  0.00    -0.006 C 
ATOM     10  C   UNL     1       1.410   5.197   0.000  1.00  0.00     0.008 C 
ATOM     11  C   UNL     1       0.021   3.002   0.000  1.00  0.00     0.001 C 
ATOM     12  C   UNL     1      -1.247   3.803   0.000  1.00  0.00     0.009 C 
ENDROOT
BRANCH   1  13
ATOM     13  C   UNL     1      -1.368   0.806   0.000  1.00  0.00    -0.036 A 
ATOM     14  C   UNL     1      -4.024  -0.588   0.000  1.00  0.00     0.160 A 
ATOM     15  C   UNL     1      -3.964   0.910   0.000  1.00  0.00     0.051 A 
ATOM     16  C   UNL     1      -2.756  -1.390   0.000  1.00  0.00     0.161 A 
ATOM     17  C   UNL     1      -2.635   1.607   0.000  1.00  0.00     0.008 A 
ATOM     18  C   UNL     1      -1.428  -0.693   0.000  1.00  0.00     0.054 A 
BRANCH  14  19
ATOM     19  O   UNL     1      -5.352  -1.285   0.000  1.00  0.00    -0.493 OA
ATOM     20  C   UNL     1      -6.620  -0.484   0.000  1.00  0.00     0.278 C 
ENDBRANCH  14  19
BRANCH  16  21
ATOM     21  O   UNL     1      -2.817  -2.889   0.000  1.00  0.00    -0.493 OA
ATOM     22  C   UNL     1      -1.549  -3.691   0.000  1.00  0.00     0.278 C 
ENDBRANCH  16  21
ENDBRANCH   1  13
BRANCH   4  23
ATOM     23  O   UNL     1       2.375  -3.098   0.000  1.00  0.00    -0.493 OA
ATOM     24  C   UNL     1       1.047  -3.795   0.000  1.00  0.00     0.278 C 
ENDBRANCH   4  23
BRANCH   5  25
ATOM     25  O   UNL     1       5.032  -1.704   0.000  1.00  0.00    -0.493 OA
ATOM     26  C   UNL     1       4.971  -3.203   0.000  1.00  0.00     0.278 C 
ENDBRANCH   5  25
TORSDOF 5
