REMARK SMILES COC(=O)[C@@H](O)[C@@H]1[C@@]2(C)[C@H]3CC[C@@]4(C)[C@H](c5ccoc5)OC(=O)C[C@@]45OC4C(=O)[C@]1(C)C[C@]2(O)[C@H]4[C@@]35O
REMARK SMILES IDX 5 1 3 2 4 3 2 4 1 5 6 6 7 8 8 9 30 10 10 11 33 12 28 13
REMARK SMILES IDX 32 14 11 15 36 16 35 17 27 18 12 19 25 20 26 21 13 22 24 23
REMARK SMILES IDX 15 24 22 25 21 26 9 27 31 28 29 29 14 30 23 31 34 32 37 34
REMARK SMILES IDX 16 36 20 37 17 38 19 39 18 40
REMARK H PARENT 6 7 34 33 37 35
ROOT
ATOM      1  C   UNL     1      -4.239  -0.715   0.000  1.00  0.00     0.228 C 
ENDROOT
BRANCH   1   2
ATOM      2  C   UNL     1      -4.746  -2.127   0.000  1.00  0.00     0.335 C 
ATOM      3  O   UNL     1      -3.777  -3.272   0.000  1.00  0.00    -0.249 OA
BRANCH   2   4
ATOM      4  O   UNL     1      -6.222  -2.393   0.000  1.00  0.00    -0.467 OA
ATOM      5  C   UNL     1      -6.730  -3.804   0.000  1.00  0.00     0.282 C 
ENDBRANCH   2   4
ENDBRANCH   1   2
BRANCH   1   6
ATOM      6  O   UNL     1      -5.207   0.430   0.000  1.00  0.00    -0.381 OA
ATOM      7  H   UNL     1       0.000   0.000   0.000  1.00  0.00     0.211 HD
ENDBRANCH   1   6
BRANCH   1   8
ATOM      8  C   UNL     1      -2.762  -0.449   0.000  1.00  0.00     0.052 C 
ATOM      9  C   UNL     1      -1.679  -1.487   0.000  1.00  0.00     0.009 C 
ATOM     10  C   UNL     1      -2.562   3.405   0.000  1.00  0.00     0.038 C 
ATOM     11  C   UNL     1      -0.212  -1.798   0.000  1.00  0.00     0.034 C 
ATOM     12  C   UNL     1      -2.560   0.807   0.000  1.00  0.00     0.080 C 
ATOM     13  C   UNL     1      -1.062   3.406   0.000  1.00  0.00     0.168 C 
ATOM     14  C   UNL     1      -3.311   2.106   0.000  1.00  0.00     0.051 C 
ATOM     15  C   UNL     1       1.002  -2.679   0.000  1.00  0.00     0.008 C 
ATOM     16  C   UNL     1      -0.056  -0.306   0.000  1.00  0.00     0.107 C 
ATOM     17  C   UNL     1      -1.060   0.808   0.000  1.00  0.00     0.093 C 
ATOM     18  C   UNL     1      -0.311   2.108   0.000  1.00  0.00     0.195 C 
ATOM     19  C   UNL     1       2.372  -2.068   0.000  1.00  0.00     0.014 C 
ATOM     20  C   UNL     1       1.314   0.305   0.000  1.00  0.00     0.118 C 
ATOM     21  O   UNL     1       0.637   1.328   0.000  1.00  0.00    -0.359 OA
ATOM     22  C   UNL     1       2.528  -0.576   0.000  1.00  0.00     0.042 C 
ATOM     23  C   UNL     1       1.470   1.797   0.000  1.00  0.00     0.162 C 
ATOM     24  C   UNL     1       3.898   0.035   0.000  1.00  0.00     0.219 C 
ATOM     25  C   UNL     1       2.840   2.408   0.000  1.00  0.00     0.309 C 
ATOM     26  O   UNL     1       4.054   1.526   0.000  1.00  0.00    -0.457 OA
ATOM     27  C   UNL     1      -2.793  -2.491   0.000  1.00  0.00     0.015 C 
ATOM     28  C   UNL     1      -3.312   4.704   0.000  1.00  0.00     0.020 C 
ATOM     29  O   UNL     1      -0.312   4.706   0.000  1.00  0.00    -0.296 OA
ATOM     30  C   UNL     1       3.742  -1.457   0.000  1.00  0.00     0.019 C 
ATOM     31  O   UNL     1       2.996   3.899   0.000  1.00  0.00    -0.252 OA
BRANCH  12  32
ATOM     32  O   UNL     1      -3.114   0.234   0.000  1.00  0.00    -0.389 OA
ATOM     33  H   UNL     1       0.000   0.000   0.000  1.00  0.00     0.211 HD
ENDBRANCH  12  32
BRANCH  16  34
ATOM     34  O   UNL     1      -1.552  -0.411   0.000  1.00  0.00    -0.386 OA
ATOM     35  H   UNL     1       0.000   0.000   0.000  1.00  0.00     0.211 HD
ENDBRANCH  16  34
BRANCH  24  36
ATOM     36  C   UNL     1       5.112  -0.846   0.000  1.00  0.00     0.031 A 
ATOM     37  C   UNL     1       6.538  -0.382   0.000  1.00  0.00     0.202 A 
ATOM     38  C   UNL     1       5.113  -2.346   0.000  1.00  0.00     0.049 A 
ATOM     39  O   UNL     1       7.421  -1.595   0.000  1.00  0.00    -0.472 OA
ATOM     40  C   UNL     1       6.540  -2.809   0.000  1.00  0.00     0.195 A 
ENDBRANCH  24  36
ENDBRANCH   1   8
TORSDOF 7
