REMARK SMILES COc1cc2ccc(=O)oc2c(OC)c1O
REMARK SMILES IDX 3 1 4 2 5 3 11 4 10 5 8 6 9 7 7 8 6 9 12 10 15 11 2 12 1 13
REMARK SMILES IDX 16 14 13 16 14 17
REMARK H PARENT 16 15
ROOT
ATOM      1  C   UNL     1      -2.020   0.755   0.000  1.00  0.00     0.165 A 
ATOM      2  C   UNL     1      -0.862   1.709   0.000  1.00  0.00     0.062 A 
ATOM      3  C   UNL     1       0.543   1.184   0.000  1.00  0.00     0.025 A 
ATOM      4  C   UNL     1       0.790  -0.295   0.000  1.00  0.00     0.184 A 
ATOM      5  O   UNL     1       2.195  -0.821   0.000  1.00  0.00    -0.419 OA
ATOM      6  C   UNL     1       3.353   0.133   0.000  1.00  0.00     0.336 A 
ATOM      7  O   UNL     1       4.758  -0.392   0.000  1.00  0.00    -0.246 OA
ATOM      8  C   UNL     1       3.105   1.613   0.000  1.00  0.00     0.094 A 
ATOM      9  C   UNL     1       1.700   2.138   0.000  1.00  0.00     0.020 A 
ATOM     10  C   UNL     1      -0.367  -1.250   0.000  1.00  0.00     0.208 A 
ATOM     11  C   UNL     1      -1.772  -0.724   0.000  1.00  0.00     0.204 A 
ENDROOT
BRANCH   1  12
ATOM     12  O   UNL     1      -3.425   1.281   0.000  1.00  0.00    -0.493 OA
ATOM     13  C   UNL     1      -3.672   2.760   0.000  1.00  0.00     0.278 C 
ENDBRANCH   1  12
BRANCH  11  14
ATOM     14  O   UNL     1      -2.930  -1.678   0.000  1.00  0.00    -0.502 OA
ATOM     15  H   UNL     1       0.000   0.000   0.000  1.00  0.00     0.293 HD
ENDBRANCH  11  14
BRANCH  10  16
ATOM     16  O   UNL     1      -0.120  -2.729   0.000  1.00  0.00    -0.490 OA
ATOM     17  C   UNL     1      -1.277  -3.683   0.000  1.00  0.00     0.278 C 
ENDBRANCH  10  16
TORSDOF 3
