REMARK SMILES C/C=C(\C)C(=O)C1=C2C3=COC(/C=C/[C@@H](C)CC)=CC3=C(Cl)C(=O)[C@@]2(C)OC1=O
REMARK SMILES IDX 7 1 8 2 9 3 10 4 11 5 12 6 19 7 20 8 21 9 22 10 23 11 24 12
REMARK SMILES IDX 25 13 26 14 27 15 28 16 29 17 5 18 6 19 3 20 4 21 2 22 1 23
REMARK SMILES IDX 13 24 14 25 15 26 16 27 17 28 18 29
REMARK H PARENT
ROOT
ATOM      1  C   UNL     1      -2.770  -0.365   0.000  1.00  0.00     0.116 C 
ATOM      2  C   UNL     1      -1.659   0.643   0.000  1.00  0.00     0.033 C 
ATOM      3  C   UNL     1      -0.167   0.492   0.000  1.00  0.00     0.027 C 
ATOM      4  C   UNL     1       0.449  -0.875   0.000  1.00  0.00     0.204 C 
ATOM      5  O   UNL     1       1.941  -1.026   0.000  1.00  0.00    -0.464 OA
ATOM      6  C   UNL     1       2.818   0.192   0.000  1.00  0.00     0.126 C 
ATOM      7  C   UNL     1       2.202   1.559   0.000  1.00  0.00     0.057 C 
ATOM      8  C   UNL     1       0.710   1.710   0.000  1.00  0.00     0.011 C 
ATOM      9  C   UNL     1       0.094   3.078   0.000  1.00  0.00     0.096 C 
ATOM     10  Cl  UNL     1       0.970   4.295   0.000  1.00  0.00    -0.080 Cl
ATOM     11  C   UNL     1      -1.399   3.228   0.000  1.00  0.00     0.222 C 
ATOM     12  O   UNL     1      -2.015   4.596   0.000  1.00  0.00    -0.288 OA
ATOM     13  C   UNL     1      -2.275   2.011   0.000  1.00  0.00     0.200 C 
ATOM     14  C   UNL     1      -3.031   3.307   0.000  1.00  0.00     0.071 C 
ATOM     15  O   UNL     1      -3.766   1.848   0.000  1.00  0.00    -0.442 OA
ATOM     16  C   UNL     1      -4.072   0.379   0.000  1.00  0.00     0.343 C 
ATOM     17  O   UNL     1      -5.440  -0.237   0.000  1.00  0.00    -0.246 OA
ENDROOT
BRANCH   1  18
ATOM     18  C   UNL     1      -2.607  -1.857   0.000  1.00  0.00     0.196 C 
ATOM     19  O   UNL     1      -1.234  -2.461   0.000  1.00  0.00    -0.289 OA
BRANCH  18  20
ATOM     20  C   UNL     1      -3.817  -2.743   0.000  1.00  0.00    -0.007 C 
ATOM     21  C   UNL     1      -5.189  -2.139   0.000  1.00  0.00     0.048 C 
BRANCH  20  22
ATOM     22  C   UNL     1      -3.654  -4.234   0.000  1.00  0.00    -0.023 C 
ATOM     23  C   UNL     1      -4.863  -5.121   0.000  1.00  0.00     0.036 C 
ENDBRANCH  20  22
ENDBRANCH  18  20
ENDBRANCH   1  18
BRANCH   6  24
ATOM     24  C   UNL     1       4.310   0.041   0.000  1.00  0.00     0.043 C 
BRANCH  24  25
ATOM     25  C   UNL     1       4.926  -1.327   0.000  1.00  0.00    -0.020 C 
BRANCH  25  26
ATOM     26  C   UNL     1       6.419  -1.477   0.000  1.00  0.00     0.008 C 
ATOM     27  C   UNL     1       7.035  -2.845   0.000  1.00  0.00     0.012 C 
BRANCH  26  28
ATOM     28  C   UNL     1       7.295  -0.260   0.000  1.00  0.00     0.004 C 
ATOM     29  C   UNL     1       8.788  -0.410   0.000  1.00  0.00     0.004 C 
ENDBRANCH  26  28
ENDBRANCH  25  26
ENDBRANCH  24  25
ENDBRANCH   6  24
TORSDOF 7
