REMARK SMILES COc1ccc2c3c(c(=O)n(C)c2c1OC)C=CC(C)(C)O3
REMARK SMILES IDX 3 1 4 2 5 3 6 4 7 5 8 6 17 7 18 8 19 9 20 10 21 11 22 12
REMARK SMILES IDX 9 13 10 14 11 15 12 16 13 17 14 18 2 19 1 20 15 21 16 22
REMARK H PARENT
ROOT
ATOM      1  C   UNL     1      -3.005   1.112   0.000  1.00  0.00     0.162 A 
ATOM      2  C   UNL     1      -2.035   2.257   0.000  1.00  0.00     0.051 A 
ATOM      3  C   UNL     1      -0.559   1.990   0.000  1.00  0.00     0.018 A 
ATOM      4  C   UNL     1      -0.052   0.578   0.000  1.00  0.00     0.045 A 
ATOM      5  C   UNL     1       1.423   0.310   0.000  1.00  0.00     0.142 A 
ATOM      6  C   UNL     1       1.930  -1.101   0.000  1.00  0.00     0.082 A 
ATOM      7  C   UNL     1       3.406  -1.368   0.000  1.00  0.00     0.017 C 
ATOM      8  C   UNL     1       4.376  -0.224   0.000  1.00  0.00     0.021 C 
ATOM      9  C   UNL     1       3.869   1.188   0.000  1.00  0.00     0.122 C 
ATOM     10  C   UNL     1       3.876   2.688   0.000  1.00  0.00     0.061 C 
ATOM     11  C   UNL     1       5.347   1.442   0.000  1.00  0.00     0.061 C 
ATOM     12  O   UNL     1       2.393   1.455   0.000  1.00  0.00    -0.482 OA
ATOM     13  C   UNL     1       0.961  -2.246   0.000  1.00  0.00     0.261 A 
ATOM     14  O   UNL     1       1.468  -3.658   0.000  1.00  0.00    -0.269 OA
ATOM     15  N   UNL     1      -0.515  -1.979   0.000  1.00  0.00    -0.307 N 
ATOM     16  C   UNL     1      -1.484  -3.124   0.000  1.00  0.00     0.154 C 
ATOM     17  C   UNL     1      -1.022  -0.567   0.000  1.00  0.00     0.101 A 
ATOM     18  C   UNL     1      -2.498  -0.300   0.000  1.00  0.00     0.185 A 
ENDROOT
BRANCH   1  19
ATOM     19  O   UNL     1      -4.481   1.379   0.000  1.00  0.00    -0.493 OA
ATOM     20  C   UNL     1      -4.987   2.791   0.000  1.00  0.00     0.278 C 
ENDBRANCH   1  19
BRANCH  18  21
ATOM     21  O   UNL     1      -3.467  -1.445   0.000  1.00  0.00    -0.491 OA
ATOM     22  C   UNL     1      -4.943  -1.178   0.000  1.00  0.00     0.278 C 
ENDBRANCH  18  21
TORSDOF 2
