REMARK SMILES CO[C@@H]1O[C@@H]([C@H](O)C(C)(C)OC)C[C@H]1[C@@H]1CC[C@]2(C)C3=CC[C@H]4C(C)(C)C(=O)CC[C@]4(C)[C@H]3CC[C@@]12C
REMARK SMILES IDX 6 1 5 2 3 3 4 4 14 5 13 6 2 7 1 8 15 9 16 10 36 11 17 12
REMARK SMILES IDX 35 13 18 14 34 15 20 16 33 17 21 18 31 19 22 20 30 21 23 22
REMARK SMILES IDX 29 23 24 24 27 25 37 26 19 27 32 28 25 29 26 30 28 31 7 32
REMARK SMILES IDX 8 34 9 35 10 36 11 37 12 38
REMARK H PARENT 7 33
ROOT
ATOM      1  C   UNL     1       5.327   1.938   0.000  1.00  0.00     0.174 C 
ENDROOT
BRANCH   1   2
ATOM      2  C   UNL     1       4.543   0.659   0.000  1.00  0.00     0.153 C 
ATOM      3  C   UNL     1       3.975  -1.700   0.000  1.00  0.00     0.253 C 
ATOM      4  O   UNL     1       5.116  -0.727   0.000  1.00  0.00    -0.346 OA
ATOM      5  C   UNL     1       2.697  -0.916   0.000  1.00  0.00     0.052 C 
ATOM      6  C   UNL     1       3.047   0.542   0.000  1.00  0.00     0.044 C 
BRANCH   3   7
ATOM      7  O   UNL     1       4.092  -3.196   0.000  1.00  0.00    -0.356 OA
ATOM      8  C   UNL     1       5.446  -3.842   0.000  1.00  0.00     0.198 C 
ENDBRANCH   3   7
BRANCH   5   9
ATOM      9  C   UNL     1       1.310  -1.489   0.000  1.00  0.00     0.004 C 
ATOM     10  C   UNL     1       0.960  -2.948   0.000  1.00  0.00     0.005 C 
ATOM     11  C   UNL     1       0.032  -0.705   0.000  1.00  0.00    -0.020 C 
ATOM     12  C   UNL     1      -0.536  -3.065   0.000  1.00  0.00     0.012 C 
ATOM     13  C   UNL     1      -0.241   0.770   0.000  1.00  0.00     0.008 C 
ATOM     14  C   UNL     1      -1.109  -1.679   0.000  1.00  0.00    -0.006 C 
ATOM     15  C   UNL     1      -1.654   1.271   0.000  1.00  0.00     0.009 C 
ATOM     16  C   UNL     1      -2.523  -1.177   0.000  1.00  0.00    -0.064 C 
ATOM     17  C   UNL     1      -2.796   0.298   0.000  1.00  0.00     0.021 C 
ATOM     18  C   UNL     1      -3.664  -2.151   0.000  1.00  0.00    -0.027 C 
ATOM     19  C   UNL     1      -4.209   0.799   0.000  1.00  0.00    -0.022 C 
ATOM     20  C   UNL     1      -5.078  -1.650   0.000  1.00  0.00     0.032 C 
ATOM     21  C   UNL     1      -4.482   2.274   0.000  1.00  0.00     0.015 C 
ATOM     22  C   UNL     1      -5.350  -0.174   0.000  1.00  0.00     0.012 C 
ATOM     23  C   UNL     1      -5.896   2.776   0.000  1.00  0.00     0.077 C 
ATOM     24  C   UNL     1      -6.764   0.327   0.000  1.00  0.00     0.027 C 
ATOM     25  C   UNL     1      -7.037   1.802   0.000  1.00  0.00     0.138 C 
ATOM     26  C   UNL     1       1.268   0.144   0.000  1.00  0.00     0.012 C 
ATOM     27  C   UNL     1      -2.142  -2.766   0.000  1.00  0.00     0.017 C 
ATOM     28  C   UNL     1      -3.068   1.773   0.000  1.00  0.00     0.012 C 
ATOM     29  C   UNL     1      -8.264   0.314   0.000  1.00  0.00     0.020 C 
ATOM     30  C   UNL     1      -7.012  -1.153   0.000  1.00  0.00     0.020 C 
ATOM     31  O   UNL     1      -8.450   2.303   0.000  1.00  0.00    -0.299 OA
ENDBRANCH   5   9
ENDBRANCH   1   2
BRANCH   1  32
ATOM     32  O   UNL     1       4.612   3.256   0.000  1.00  0.00    -0.387 OA
ATOM     33  H   UNL     1       0.000   0.000   0.000  1.00  0.00     0.211 HD
ENDBRANCH   1  32
BRANCH   1  34
ATOM     34  C   UNL     1       6.827   1.898   0.000  1.00  0.00     0.091 C 
ATOM     35  C   UNL     1       6.787   0.399   0.000  1.00  0.00     0.045 C 
ATOM     36  C   UNL     1       6.867   3.397   0.000  1.00  0.00     0.045 C 
BRANCH  34  37
ATOM     37  O   UNL     1       8.326   1.858   0.000  1.00  0.00    -0.376 OA
ATOM     38  C   UNL     1       9.041   0.539   0.000  1.00  0.00     0.195 C 
ENDBRANCH  34  37
ENDBRANCH   1  34
TORSDOF 6
