REMARK SMILES CC[C@@H]1C(=O)OC[C@@H]1/C=C1\C(=O)NC(=O)N1C
REMARK SMILES IDX 3 1 4 2 5 3 6 4 7 5 8 6 2 7 1 8 9 9 10 10 11 11 16 12 13 13
REMARK SMILES IDX 14 14 12 15 17 16 15 18
REMARK H PARENT 13 17
ROOT
ATOM      1  C   UNL     1       2.492  -0.484   0.000  1.00  0.00     0.109 C 
ATOM      2  C   UNL     1       3.377   0.727   0.000  1.00  0.00     0.309 C 
ATOM      3  O   UNL     1       4.877   0.723   0.000  1.00  0.00    -0.252 OA
ATOM      4  O   UNL     1       2.499   1.943   0.000  1.00  0.00    -0.465 OA
ATOM      5  C   UNL     1       1.071   1.483   0.000  1.00  0.00     0.241 C 
ATOM      6  C   UNL     1       1.067  -0.017   0.000  1.00  0.00     0.066 C 
ENDROOT
BRANCH   1   7
ATOM      7  C   UNL     1       2.952  -1.912   0.000  1.00  0.00     0.012 C 
ATOM      8  C   UNL     1       4.418  -2.228   0.000  1.00  0.00     0.005 C 
ENDBRANCH   1   7
BRANCH   6   9
ATOM      9  C   UNL     1      -0.149  -0.895   0.000  1.00  0.00     0.013 C 
BRANCH   9  10
ATOM     10  C   UNL     1      -1.518  -0.281   0.000  1.00  0.00     0.107 C 
ATOM     11  C   UNL     1      -1.825   1.187   0.000  1.00  0.00     0.275 C 
ATOM     12  N   UNL     1      -2.819  -1.027   0.000  1.00  0.00    -0.292 N 
ATOM     13  N   UNL     1      -3.317   1.348   0.000  1.00  0.00    -0.272 N 
ATOM     14  C   UNL     1      -3.931  -0.020   0.000  1.00  0.00     0.328 C 
ATOM     15  O   UNL     1      -0.818   2.299   0.000  1.00  0.00    -0.267 OA
ATOM     16  C   UNL     1      -2.980  -2.518   0.000  1.00  0.00     0.155 C 
ATOM     17  H   UNL     1       0.000   0.000   0.000  1.00  0.00     0.175 HD
ATOM     18  O   UNL     1      -5.399  -0.328   0.000  1.00  0.00    -0.248 OA
ENDBRANCH   9  10
ENDBRANCH   6   9
TORSDOF 3
