REMARK SMILES Cn1c(=O)c2c(c3ccccc31)OC(C)(C)C=C2
REMARK SMILES IDX 1 1 2 2 3 3 4 4 5 5 6 6 13 7 14 8 15 9 16 10 17 11 18 12
REMARK SMILES IDX 7 13 8 14 9 15 10 16 11 17 12 18
REMARK H PARENT
ROOT
ATOM      1  C   UNL     1       3.039   2.476   0.000  1.00  0.00     0.153 C 
ATOM      2  N   UNL     1       1.859   1.550   0.000  1.00  0.00    -0.311 N 
ATOM      3  C   UNL     1       0.467   2.109   0.000  1.00  0.00     0.261 A 
ATOM      4  O   UNL     1       0.255   3.594   0.000  1.00  0.00    -0.269 OA
ATOM      5  C   UNL     1      -0.713   1.183   0.000  1.00  0.00     0.082 A 
ATOM      6  C   UNL     1      -0.501  -0.302   0.000  1.00  0.00     0.142 A 
ATOM      7  O   UNL     1      -1.681  -1.228   0.000  1.00  0.00    -0.482 OA
ATOM      8  C   UNL     1      -3.073  -0.669   0.000  1.00  0.00     0.122 C 
ATOM      9  C   UNL     1      -4.573  -0.619   0.000  1.00  0.00     0.061 C 
ATOM     10  C   UNL     1      -3.382  -2.136   0.000  1.00  0.00     0.061 C 
ATOM     11  C   UNL     1      -3.285   0.816   0.000  1.00  0.00     0.021 C 
ATOM     12  C   UNL     1      -2.105   1.742   0.000  1.00  0.00     0.017 C 
ATOM     13  C   UNL     1       0.891  -0.861   0.000  1.00  0.00     0.041 A 
ATOM     14  C   UNL     1       1.102  -2.346   0.000  1.00  0.00     0.014 A 
ATOM     15  C   UNL     1       2.494  -2.905   0.000  1.00  0.00     0.001 A 
ATOM     16  C   UNL     1       3.675  -1.979   0.000  1.00  0.00     0.002 A 
ATOM     17  C   UNL     1       3.463  -0.494   0.000  1.00  0.00     0.027 A 
ATOM     18  C   UNL     1       2.071   0.065   0.000  1.00  0.00     0.055 A 
ENDROOT
TORSDOF 0
