REMARK SMILES CC(=O)OC1c2ccc3c(c2[C@](O)(c2ccc4c(c2)OCO4)[C@@H](C)[C@@H]1C)OCO3
REMARK SMILES IDX 5 1 6 2 7 3 8 4 9 5 29 6 28 7 27 8 10 9 11 10 12 11 23 12
REMARK SMILES IDX 24 13 25 14 26 15 4 16 2 17 1 18 3 19 13 20 14 22 15 23
REMARK SMILES IDX 19 24 16 25 18 26 17 27 20 28 22 29 21 30
REMARK H PARENT 13 21
ROOT
ATOM      1  C   UNL     1       3.105   0.774   0.000  1.00  0.00     0.210 C 
ATOM      2  C   UNL     1       2.067  -0.309   0.000  1.00  0.00     0.003 A 
ATOM      3  C   UNL     1       2.486  -1.749   0.000  1.00  0.00     0.012 A 
ATOM      4  C   UNL     1       1.447  -2.832   0.000  1.00  0.00     0.051 A 
ATOM      5  C   UNL     1      -0.009  -2.474   0.000  1.00  0.00     0.166 A 
ATOM      6  O   UNL     1      -1.250  -3.317   0.000  1.00  0.00    -0.454 OA
ATOM      7  C   UNL     1      -2.435  -2.398   0.000  1.00  0.00     0.468 C 
ATOM      8  O   UNL     1      -1.927  -0.986   0.000  1.00  0.00    -0.453 OA
ATOM      9  C   UNL     1      -0.428  -1.034   0.000  1.00  0.00     0.172 A 
ATOM     10  C   UNL     1       0.610   0.049   0.000  1.00  0.00     0.041 A 
ATOM     11  C   UNL     1       0.192   1.490   0.000  1.00  0.00     0.122 C 
ATOM     12  C   UNL     1       1.230   2.572   0.000  1.00  0.00     0.034 C 
ATOM     13  C   UNL     1       0.812   4.013   0.000  1.00  0.00     0.012 C 
ATOM     14  C   UNL     1       2.687   2.214   0.000  1.00  0.00     0.038 C 
ATOM     15  C   UNL     1       3.725   3.297   0.000  1.00  0.00     0.012 C 
ENDROOT
BRANCH   1  16
ATOM     16  O   UNL     1       4.562   0.416   0.000  1.00  0.00    -0.457 OA
BRANCH  16  17
ATOM     17  C   UNL     1       4.980  -1.024   0.000  1.00  0.00     0.303 C 
ATOM     18  C   UNL     1       6.437  -1.382   0.000  1.00  0.00     0.139 C 
ATOM     19  O   UNL     1       3.942  -2.107   0.000  1.00  0.00    -0.253 OA
ENDBRANCH  16  17
ENDBRANCH   1  16
BRANCH  11  20
ATOM     20  O   UNL     1      -0.694   2.700   0.000  1.00  0.00    -0.380 OA
ATOM     21  H   UNL     1       0.000   0.000   0.000  1.00  0.00     0.212 HD
ENDBRANCH  11  20
BRANCH  11  22
ATOM     22  C   UNL     1      -1.154   0.827   0.000  1.00  0.00    -0.008 A 
ATOM     23  C   UNL     1      -1.254  -0.669   0.000  1.00  0.00     0.011 A 
ATOM     24  C   UNL     1      -2.401   1.662   0.000  1.00  0.00     0.057 A 
ATOM     25  C   UNL     1      -2.599  -1.332   0.000  1.00  0.00     0.051 A 
ATOM     26  C   UNL     1      -3.746   1.000   0.000  1.00  0.00     0.166 A 
ATOM     27  C   UNL     1      -3.846  -0.497   0.000  1.00  0.00     0.165 A 
ATOM     28  O   UNL     1      -5.139   1.557   0.000  1.00  0.00    -0.454 OA
ATOM     29  O   UNL     1      -5.300  -0.865   0.000  1.00  0.00    -0.454 OA
ATOM     30  C   UNL     1      -6.099   0.404   0.000  1.00  0.00     0.468 C 
ENDBRANCH  11  22
TORSDOF 4
