REMARK SMILES COc1cc(C=CC(=O)c2ccc(O)cc2O)ccc1O
REMARK SMILES IDX 7 1 6 2 5 3 3 4 4 5 20 6 19 7 18 8 2 9 1 10 21 11 8 13 9 14
REMARK SMILES IDX 10 15 11 16 16 17 12 18 15 19 13 20 17 21 14 23
REMARK H PARENT 21 12 17 22 14 24
ROOT
ATOM      1  C   UNL     1      -0.365  -0.225   0.000  1.00  0.00     0.053 C 
ENDROOT
BRANCH   1   2
ATOM      2  C   UNL     1       0.955  -0.938   0.000  1.00  0.00     0.012 C 
BRANCH   2   3
ATOM      3  C   UNL     1       2.232  -0.151   0.000  1.00  0.00    -0.022 A 
ATOM      4  C   UNL     1       4.829  -0.078   0.000  1.00  0.00     0.161 A 
ATOM      5  C   UNL     1       3.552  -0.865   0.000  1.00  0.00     0.058 A 
ATOM      6  C   UNL     1       4.787   1.421   0.000  1.00  0.00     0.157 A 
ATOM      7  C   UNL     1       3.467   2.134   0.000  1.00  0.00     0.051 A 
ATOM      8  C   UNL     1       2.190   1.348   0.000  1.00  0.00     0.012 A 
BRANCH   4   9
ATOM      9  O   UNL     1       6.149  -0.791   0.000  1.00  0.00    -0.493 OA
ATOM     10  C   UNL     1       6.191  -2.291   0.000  1.00  0.00     0.278 C 
ENDBRANCH   4   9
BRANCH   6  11
ATOM     11  O   UNL     1       6.064   2.207   0.000  1.00  0.00    -0.504 OA
ATOM     12  H   UNL     1       0.000   0.000   0.000  1.00  0.00     0.293 HD
ENDBRANCH   6  11
ENDBRANCH   2   3
ENDBRANCH   1   2
BRANCH   1  13
ATOM     13  C   UNL     1      -1.642  -1.011   0.000  1.00  0.00     0.189 C 
ATOM     14  O   UNL     1      -1.600  -2.510   0.000  1.00  0.00    -0.289 OA
BRANCH  13  15
ATOM     15  C   UNL     1      -2.962  -0.298   0.000  1.00  0.00     0.064 A 
ATOM     16  C   UNL     1      -3.004   1.202   0.000  1.00  0.00     0.020 A 
ATOM     17  C   UNL     1      -4.239  -1.084   0.000  1.00  0.00     0.130 A 
ATOM     18  C   UNL     1      -4.324   1.915   0.000  1.00  0.00     0.047 A 
ATOM     19  C   UNL     1      -5.559  -0.371   0.000  1.00  0.00     0.093 A 
ATOM     20  C   UNL     1      -5.601   1.128   0.000  1.00  0.00     0.119 A 
BRANCH  17  21
ATOM     21  O   UNL     1      -4.197  -2.583   0.000  1.00  0.00    -0.507 OA
ATOM     22  H   UNL     1       0.000   0.000   0.000  1.00  0.00     0.293 HD
ENDBRANCH  17  21
BRANCH  20  23
ATOM     23  O   UNL     1      -6.921   1.841   0.000  1.00  0.00    -0.508 OA
ATOM     24  H   UNL     1       0.000   0.000   0.000  1.00  0.00     0.293 HD
ENDBRANCH  20  23
ENDBRANCH  13  15
ENDBRANCH   1  13
TORSDOF 8
