REMARK SMILES COc1ccc(-c2coc3cc(O)ccc3c2=O)cc1
REMARK SMILES IDX 7 1 8 2 9 3 10 4 11 5 12 6 14 7 15 8 16 9 17 10 18 11 6 12
REMARK SMILES IDX 3 13 4 14 20 15 5 16 19 17 2 18 1 19 13 20
REMARK H PARENT 13 21
ROOT
ATOM      1  C   UNL     1      -0.169  -0.571   0.000  1.00  0.00     0.065 A 
ATOM      2  C   UNL     1       0.451  -1.937   0.000  1.00  0.00     0.208 A 
ATOM      3  O   UNL     1       1.944  -2.083   0.000  1.00  0.00    -0.463 OA
ATOM      4  C   UNL     1       2.817  -0.863   0.000  1.00  0.00     0.141 A 
ATOM      5  C   UNL     1       4.310  -1.009   0.000  1.00  0.00     0.094 A 
ATOM      6  C   UNL     1       5.183   0.211   0.000  1.00  0.00     0.119 A 
ATOM      7  C   UNL     1       4.563   1.577   0.000  1.00  0.00     0.047 A 
ATOM      8  C   UNL     1       3.070   1.723   0.000  1.00  0.00     0.020 A 
ATOM      9  C   UNL     1       2.197   0.503   0.000  1.00  0.00     0.066 A 
ATOM     10  C   UNL     1       0.704   0.649   0.000  1.00  0.00     0.200 A 
ATOM     11  O   UNL     1       0.084   2.015   0.000  1.00  0.00    -0.288 OA
ENDROOT
BRANCH   1  12
ATOM     12  C   UNL     1      -1.662  -0.425   0.000  1.00  0.00    -0.011 A 
ATOM     13  C   UNL     1      -4.647  -0.133   0.000  1.00  0.00     0.118 A 
ATOM     14  C   UNL     1      -3.775   1.087   0.000  1.00  0.00     0.047 A 
ATOM     15  C   UNL     1      -4.028  -1.498   0.000  1.00  0.00     0.047 A 
ATOM     16  C   UNL     1      -2.282   0.941   0.000  1.00  0.00     0.013 A 
ATOM     17  C   UNL     1      -2.535  -1.645   0.000  1.00  0.00     0.013 A 
BRANCH  13  18
ATOM     18  O   UNL     1      -6.140   0.013   0.000  1.00  0.00    -0.497 OA
ATOM     19  C   UNL     1      -6.760   1.379   0.000  1.00  0.00     0.278 C 
ENDBRANCH  13  18
ENDBRANCH   1  12
BRANCH   6  20
ATOM     20  O   UNL     1       6.676   0.065   0.000  1.00  0.00    -0.508 OA
ATOM     21  H   UNL     1       0.000   0.000   0.000  1.00  0.00     0.293 HD
ENDBRANCH   6  20
TORSDOF 3
