REMARK SMILES CCOC(=O)c1c(O)cc(O)c(C)c1C
REMARK SMILES IDX 4 1 5 2 3 3 2 4 1 5 6 6 7 7 14 8 9 9 12 10 10 11 15 12 13 13
REMARK SMILES IDX 8 14 11 16
REMARK H PARENT 8 15 11 17
ROOT
ATOM      1  C   UNL     1      -1.517  -0.655   0.000  1.00  0.00     0.342 C 
ATOM      2  O   UNL     1      -1.769  -2.133   0.000  1.00  0.00    -0.246 OA
ENDROOT
BRANCH   1   3
ATOM      3  O   UNL     1      -2.672   0.303   0.000  1.00  0.00    -0.462 OA
BRANCH   3   4
ATOM      4  C   UNL     1      -4.078  -0.218   0.000  1.00  0.00     0.230 C 
ATOM      5  C   UNL     1      -5.233   0.739   0.000  1.00  0.00     0.049 C 
ENDBRANCH   3   4
ENDBRANCH   1   3
BRANCH   1   6
ATOM      6  C   UNL     1      -0.111  -0.133   0.000  1.00  0.00     0.105 A 
ATOM      7  C   UNL     1       0.141   1.345   0.000  1.00  0.00     0.134 A 
ATOM      8  C   UNL     1       1.044  -1.091   0.000  1.00  0.00    -0.026 A 
ATOM      9  C   UNL     1       1.548   1.867   0.000  1.00  0.00     0.093 A 
ATOM     10  C   UNL     1       2.451  -0.570   0.000  1.00  0.00    -0.005 A 
ATOM     11  C   UNL     1       2.703   0.909   0.000  1.00  0.00     0.122 A 
ATOM     12  C   UNL     1       0.792  -2.570   0.000  1.00  0.00     0.046 C 
ATOM     13  C   UNL     1       3.605  -1.527   0.000  1.00  0.00     0.049 C 
BRANCH   7  14
ATOM     14  O   UNL     1      -1.013   2.303   0.000  1.00  0.00    -0.507 OA
ATOM     15  H   UNL     1       0.000   0.000   0.000  1.00  0.00     0.293 HD
ENDBRANCH   7  14
BRANCH  11  16
ATOM     16  O   UNL     1       4.109   1.430   0.000  1.00  0.00    -0.508 OA
ATOM     17  H   UNL     1       0.000   0.000   0.000  1.00  0.00     0.293 HD
ENDBRANCH  11  16
ENDBRANCH   1   6
TORSDOF 5
