REMARK SMILES COc1ccc(-c2oc3cc(OC)c(OC)c(OC(C)=O)c3c(=O)c2OC)c(OC)c1OC
REMARK SMILES IDX 7 1 25 2 23 3 24 4 22 5 17 6 14 7 11 8 10 9 9 10 8 11 6 12
REMARK SMILES IDX 3 13 4 14 31 15 5 16 28 17 2 18 1 19 32 20 33 21 29 22 30 23
REMARK SMILES IDX 26 24 27 25 18 26 19 27 20 28 21 29 12 30 13 31 15 32 16 33
REMARK H PARENT
ROOT
ATOM      1  C   UNL     1      -1.104  -0.442   0.000  1.00  0.00     0.184 A 
ATOM      2  C   UNL     1      -0.390  -1.761   0.000  1.00  0.00     0.211 A 
ATOM      3  C   UNL     1       1.109  -1.803   0.000  1.00  0.00     0.239 A 
ATOM      4  O   UNL     1       1.823  -3.122   0.000  1.00  0.00    -0.285 OA
ATOM      5  C   UNL     1       1.895  -0.525   0.000  1.00  0.00     0.116 A 
ATOM      6  C   UNL     1       3.395  -0.567   0.000  1.00  0.00     0.191 A 
ATOM      7  C   UNL     1       4.181   0.711   0.000  1.00  0.00     0.205 A 
ATOM      8  C   UNL     1       3.467   2.030   0.000  1.00  0.00     0.168 A 
ATOM      9  C   UNL     1       1.968   2.072   0.000  1.00  0.00     0.098 A 
ATOM     10  C   UNL     1       1.182   0.794   0.000  1.00  0.00     0.146 A 
ATOM     11  O   UNL     1      -0.318   0.836   0.000  1.00  0.00    -0.451 OA
ENDROOT
BRANCH   1  12
ATOM     12  C   UNL     1      -2.603  -0.400   0.000  1.00  0.00     0.067 A 
ATOM     13  C   UNL     1      -5.602  -0.316   0.000  1.00  0.00     0.164 A 
ATOM     14  C   UNL     1      -4.888  -1.636   0.000  1.00  0.00     0.051 A 
ATOM     15  C   UNL     1      -4.816   0.961   0.000  1.00  0.00     0.204 A 
ATOM     16  C   UNL     1      -3.389  -1.678   0.000  1.00  0.00     0.020 A 
ATOM     17  C   UNL     1      -3.317   0.919   0.000  1.00  0.00     0.175 A 
BRANCH  13  18
ATOM     18  O   UNL     1      -7.101  -0.275   0.000  1.00  0.00    -0.493 OA
ATOM     19  C   UNL     1      -7.887  -1.552   0.000  1.00  0.00     0.278 C 
ENDBRANCH  13  18
BRANCH  15  20
ATOM     20  O   UNL     1      -5.529   2.281   0.000  1.00  0.00    -0.490 OA
ATOM     21  C   UNL     1      -7.029   2.322   0.000  1.00  0.00     0.278 C 
ENDBRANCH  15  20
BRANCH  17  22
ATOM     22  O   UNL     1      -2.531   2.197   0.000  1.00  0.00    -0.492 OA
ATOM     23  C   UNL     1      -3.244   3.517   0.000  1.00  0.00     0.278 C 
ENDBRANCH  17  22
ENDBRANCH   1  12
BRANCH   2  24
ATOM     24  O   UNL     1      -1.176  -3.039   0.000  1.00  0.00    -0.490 OA
ATOM     25  C   UNL     1      -2.675  -2.997   0.000  1.00  0.00     0.278 C 
ENDBRANCH   2  24
BRANCH   6  26
ATOM     26  O   UNL     1       4.108  -1.887   0.000  1.00  0.00    -0.422 OA
BRANCH  26  27
ATOM     27  C   UNL     1       5.607  -1.928   0.000  1.00  0.00     0.308 C 
ATOM     28  C   UNL     1       6.321  -3.248   0.000  1.00  0.00     0.139 C 
ATOM     29  O   UNL     1       6.393  -0.651   0.000  1.00  0.00    -0.252 OA
ENDBRANCH  26  27
ENDBRANCH   6  26
BRANCH   8  30
ATOM     30  O   UNL     1       4.253   3.308   0.000  1.00  0.00    -0.493 OA
ATOM     31  C   UNL     1       5.752   3.266   0.000  1.00  0.00     0.278 C 
ENDBRANCH   8  30
BRANCH   7  32
ATOM     32  O   UNL     1       5.680   0.669   0.000  1.00  0.00    -0.490 OA
ATOM     33  C   UNL     1       6.466   1.946   0.000  1.00  0.00     0.278 C 
ENDBRANCH   7  32
TORSDOF 9
