REMARK SMILES COc1cc2c(cc1O)[C@H](c1ccc(OC)c(OC)c1)[C@@H](CO)[C@H](CO)C2
REMARK SMILES IDX 3 1 4 2 5 3 6 4 7 5 8 6 10 7 21 8 24 9 27 10 2 11 1 12 9 13
REMARK SMILES IDX 11 15 12 16 20 17 13 18 17 19 14 20 18 21 19 22 15 23 16 24
REMARK SMILES IDX 25 25 26 26 22 28 23 29
REMARK H PARENT 9 14 26 27 23 30
ROOT
ATOM      1  C   UNL     1      -4.149  -1.443   0.000  1.00  0.00     0.160 A 
ATOM      2  C   UNL     1      -4.047   0.053   0.000  1.00  0.00     0.054 A 
ATOM      3  C   UNL     1      -2.700   0.713   0.000  1.00  0.00    -0.040 A 
ATOM      4  C   UNL     1      -1.455  -0.123   0.000  1.00  0.00    -0.033 A 
ATOM      5  C   UNL     1      -1.557  -1.620   0.000  1.00  0.00     0.054 A 
ATOM      6  C   UNL     1      -2.904  -2.280   0.000  1.00  0.00     0.157 A 
ATOM      7  C   UNL     1      -0.108   0.536   0.000  1.00  0.00     0.055 C 
ATOM      8  C   UNL     1      -0.006   2.033   0.000  1.00  0.00     0.032 C 
ATOM      9  C   UNL     1      -1.251   2.869   0.000  1.00  0.00     0.025 C 
ATOM     10  C   UNL     1      -2.598   2.210   0.000  1.00  0.00     0.042 C 
ENDROOT
BRANCH   1  11
ATOM     11  O   UNL     1      -5.496  -2.103   0.000  1.00  0.00    -0.493 OA
ATOM     12  C   UNL     1      -6.741  -1.267   0.000  1.00  0.00     0.278 C 
ENDBRANCH   1  11
BRANCH   6  13
ATOM     13  O   UNL     1      -3.006  -3.776   0.000  1.00  0.00    -0.504 OA
ATOM     14  H   UNL     1       0.000   0.000   0.000  1.00  0.00     0.293 HD
ENDBRANCH   6  13
BRANCH   7  15
ATOM     15  C   UNL     1       1.137  -0.300   0.000  1.00  0.00    -0.036 A 
ATOM     16  C   UNL     1       1.035  -1.797   0.000  1.00  0.00     0.008 A 
ATOM     17  C   UNL     1       2.484   0.360   0.000  1.00  0.00     0.054 A 
ATOM     18  C   UNL     1       2.280  -2.633   0.000  1.00  0.00     0.051 A 
ATOM     19  C   UNL     1       3.729  -0.477   0.000  1.00  0.00     0.161 A 
ATOM     20  C   UNL     1       3.627  -1.974   0.000  1.00  0.00     0.160 A 
BRANCH  19  21
ATOM     21  O   UNL     1       5.076   0.183   0.000  1.00  0.00    -0.493 OA
ATOM     22  C   UNL     1       5.178   1.679   0.000  1.00  0.00     0.278 C 
ENDBRANCH  19  21
BRANCH  20  23
ATOM     23  O   UNL     1       4.872  -2.810   0.000  1.00  0.00    -0.493 OA
ATOM     24  C   UNL     1       4.770  -4.307   0.000  1.00  0.00     0.278 C 
ENDBRANCH  20  23
ENDBRANCH   7  15
BRANCH   9  25
ATOM     25  C   UNL     1      -1.149   4.366   0.000  1.00  0.00     0.160 C 
BRANCH  25  26
ATOM     26  O   UNL     1       0.198   5.026   0.000  1.00  0.00    -0.396 OA
ATOM     27  H   UNL     1       0.000   0.000   0.000  1.00  0.00     0.210 HD
ENDBRANCH  25  26
ENDBRANCH   9  25
BRANCH   8  28
ATOM     28  C   UNL     1       1.341   2.693   0.000  1.00  0.00     0.161 C 
BRANCH  28  29
ATOM     29  O   UNL     1       1.443   4.189   0.000  1.00  0.00    -0.396 OA
ATOM     30  H   UNL     1       0.000   0.000   0.000  1.00  0.00     0.210 HD
ENDBRANCH  28  29
ENDBRANCH   8  28
TORSDOF 9
