REMARK SMILES CC1(C)CCC[C@@]2(C)[C@H]1CC[C@]13C=C(CO)[C@H](CC[C@@H]12)C3
REMARK SMILES IDX 15 1 14 2 2 3 4 4 9 5 5 6 7 7 10 8 6 9 20 10 11 11 19 12
REMARK SMILES IDX 12 13 18 14 13 15 21 16 17 17 1 18 3 19 8 20 16 21
REMARK H PARENT 16 22
ROOT
ATOM      1  C   UNL     1       4.940  -0.588   0.000  1.00  0.00     0.187 C 
ENDROOT
BRANCH   1   2
ATOM      2  C   UNL     1       3.496  -0.183   0.000  1.00  0.00    -0.045 C 
ATOM      3  C   UNL     1      -3.381  -0.934   0.000  1.00  0.00    -0.032 C 
ATOM      4  C   UNL     1      -4.312   0.242   0.000  1.00  0.00     0.007 C 
ATOM      5  C   UNL     1      -1.897  -0.717   0.000  1.00  0.00     0.001 C 
ATOM      6  C   UNL     1      -3.758   1.636   0.000  1.00  0.00     0.001 C 
ATOM      7  C   UNL     1      -1.343   0.677   0.000  1.00  0.00    -0.026 C 
ATOM      8  C   UNL     1      -0.967  -1.894   0.000  1.00  0.00     0.005 C 
ATOM      9  C   UNL     1      -2.274   1.854   0.000  1.00  0.00     0.007 C 
ATOM     10  C   UNL     1       0.141   0.894   0.000  1.00  0.00     0.005 C 
ATOM     11  C   UNL     1       0.517  -1.676   0.000  1.00  0.00     0.012 C 
ATOM     12  C   UNL     1       0.694   2.289   0.000  1.00  0.00     0.006 C 
ATOM     13  C   UNL     1       1.071  -0.282   0.000  1.00  0.00    -0.008 C 
ATOM     14  C   UNL     1       2.179   2.506   0.000  1.00  0.00     0.008 C 
ATOM     15  C   UNL     1       2.320  -1.114   0.000  1.00  0.00    -0.018 C 
ATOM     16  C   UNL     1       2.555  -0.065   0.000  1.00  0.00     0.019 C 
ATOM     17  C   UNL     1       3.109   1.329   0.000  1.00  0.00     0.018 C 
ATOM     18  C   UNL     1      -2.910  -2.358   0.000  1.00  0.00     0.011 C 
ATOM     19  C   UNL     1      -4.702  -1.646   0.000  1.00  0.00     0.011 C 
ATOM     20  C   UNL     1      -0.790   2.071   0.000  1.00  0.00     0.012 C 
ENDBRANCH   1   2
BRANCH   1  21
ATOM     21  O   UNL     1       5.312  -2.042   0.000  1.00  0.00    -0.392 OA
ATOM     22  H   UNL     1       0.000   0.000   0.000  1.00  0.00     0.211 HD
ENDBRANCH   1  21
TORSDOF 2
