REMARK SMILES CCCC[C@@H](O)CC(C)C
REMARK SMILES IDX 4 1 3 2 2 3 1 4 5 5 6 6 7 8 8 9 9 10 10 11
REMARK H PARENT 6 7
ROOT
ATOM      1  C   UNL     1       1.077  -0.694   0.000  1.00  0.00     0.032 C 
ENDROOT
BRANCH   1   2
ATOM      2  C   UNL     1       2.335   0.123   0.000  1.00  0.00     0.002 C 
BRANCH   2   3
ATOM      3  C   UNL     1       3.672  -0.557   0.000  1.00  0.00    -0.003 C 
ATOM      4  C   UNL     1       4.929   0.260   0.000  1.00  0.00     0.004 C 
ENDBRANCH   2   3
ENDBRANCH   1   2
BRANCH   1   5
ATOM      5  C   UNL     1      -0.259  -0.014   0.000  1.00  0.00     0.114 C 
BRANCH   5   6
ATOM      6  O   UNL     1      -0.339   1.484   0.000  1.00  0.00    -0.393 OA
ATOM      7  H   UNL     1       0.000   0.000   0.000  1.00  0.00     0.210 HD
ENDBRANCH   5   6
BRANCH   5   8
ATOM      8  C   UNL     1      -1.517  -0.831   0.000  1.00  0.00     0.034 C 
BRANCH   8   9
ATOM      9  C   UNL     1      -2.854  -0.151   0.000  1.00  0.00    -0.015 C 
ATOM     10  C   UNL     1      -4.112  -0.968   0.000  1.00  0.00     0.007 C 
ATOM     11  C   UNL     1      -2.933   1.347   0.000  1.00  0.00     0.007 C 
ENDBRANCH   8   9
ENDBRANCH   5   8
ENDBRANCH   1   5
TORSDOF 6
