REMARK SMILES CC[C@H]1C(=O)C[C@H]2[C@@H]3CC[C@H]4C[C@@H](OC(C)=O)[C@@H](OC(C)=O)C[C@]4(C)[C@H]3CC[C@]12C
REMARK SMILES IDX 3 1 4 2 5 3 6 4 7 5 8 6 9 7 10 8 11 9 12 10 13 11 18 12
REMARK SMILES IDX 23 13 24 14 25 15 26 16 27 17 28 18 29 19 30 20 2 21 1 22
REMARK SMILES IDX 19 23 20 24 21 25 22 26 14 27 15 28 16 29 17 30
REMARK H PARENT
ROOT
ATOM      1  C   UNL     1       5.094  -0.192   0.000  1.00  0.00     0.062 C 
ATOM      2  C   UNL     1       5.412   1.274   0.000  1.00  0.00     0.136 C 
ATOM      3  O   UNL     1       6.785   1.878   0.000  1.00  0.00    -0.299 OA
ATOM      4  C   UNL     1       4.116   2.029   0.000  1.00  0.00     0.080 C 
ATOM      5  C   UNL     1       2.997   1.030   0.000  1.00  0.00     0.006 C 
ATOM      6  C   UNL     1       1.506   1.194   0.000  1.00  0.00    -0.003 C 
ATOM      7  C   UNL     1       0.902   2.567   0.000  1.00  0.00     0.004 C 
ATOM      8  C   UNL     1      -0.589   2.730   0.000  1.00  0.00     0.004 C 
ATOM      9  C   UNL     1      -1.476   1.520   0.000  1.00  0.00    -0.001 C 
ATOM     10  C   UNL     1      -2.967   1.683   0.000  1.00  0.00     0.053 C 
ATOM     11  C   UNL     1      -3.854   0.474   0.000  1.00  0.00     0.217 C 
ATOM     12  C   UNL     1      -3.250  -0.899   0.000  1.00  0.00     0.218 C 
ATOM     13  C   UNL     1      -1.759  -1.062   0.000  1.00  0.00     0.056 C 
ATOM     14  C   UNL     1      -0.872   0.147   0.000  1.00  0.00    -0.023 C 
ATOM     15  C   UNL     1      -0.268  -1.226   0.000  1.00  0.00     0.012 C 
ATOM     16  C   UNL     1       0.619  -0.016   0.000  1.00  0.00    -0.001 C 
ATOM     17  C   UNL     1       1.223  -1.389   0.000  1.00  0.00     0.005 C 
ATOM     18  C   UNL     1       2.714  -1.552   0.000  1.00  0.00     0.008 C 
ATOM     19  C   UNL     1       3.601  -0.342   0.000  1.00  0.00    -0.019 C 
ATOM     20  C   UNL     1       4.346  -1.645   0.000  1.00  0.00     0.012 C 
ENDROOT
BRANCH   1  21
ATOM     21  C   UNL     1       6.092  -1.311   0.000  1.00  0.00     0.008 C 
ATOM     22  C   UNL     1       7.561  -1.006   0.000  1.00  0.00     0.005 C 
ENDBRANCH   1  21
BRANCH  12  23
ATOM     23  O   UNL     1      -4.137  -2.109   0.000  1.00  0.00    -0.459 OA
BRANCH  23  24
ATOM     24  C   UNL     1      -3.533  -3.482   0.000  1.00  0.00     0.303 C 
ATOM     25  C   UNL     1      -4.420  -4.691   0.000  1.00  0.00     0.139 C 
ATOM     26  O   UNL     1      -2.042  -3.645   0.000  1.00  0.00    -0.253 OA
ENDBRANCH  23  24
ENDBRANCH  12  23
BRANCH  11  27
ATOM     27  O   UNL     1      -5.345   0.637   0.000  1.00  0.00    -0.459 OA
BRANCH  27  28
ATOM     28  C   UNL     1      -5.950   2.010   0.000  1.00  0.00     0.303 C 
ATOM     29  C   UNL     1      -7.441   2.173   0.000  1.00  0.00     0.139 C 
ATOM     30  O   UNL     1      -5.063   3.220   0.000  1.00  0.00    -0.253 OA
ENDBRANCH  27  28
ENDBRANCH  11  27
TORSDOF 5
