REMARK SMILES CC1(C)CC[C@]2(C)CC[C@]3(C)C(=CCC4[C@@]5(C)CC[C@H](OC(=O)Cc6ccccc6)C(C)(C)C5CC[C@]43C)C2C1
REMARK SMILES IDX 21 1 20 2 2 3 4 4 40 5 5 6 39 7 6 8 12 9 8 10 10 11 13 12
REMARK SMILES IDX 9 13 37 14 14 15 36 16 15 17 35 18 16 19 34 20 18 21 31 22
REMARK SMILES IDX 19 23 1 24 3 25 7 26 11 27 38 28 17 29 32 30 33 31 22 32
REMARK SMILES IDX 23 33 24 34 25 35 26 36 30 37 27 38 29 39 28 40
REMARK H PARENT
ROOT
ATOM      1  O   UNL     1       4.862   1.387   0.000  1.00  0.00    -0.462 OA
ENDROOT
BRANCH   1   2
ATOM      2  C   UNL     1       3.395   1.078   0.000  1.00  0.00     0.182 C 
ATOM      3  C   UNL     1      -7.348  -2.506   0.000  1.00  0.00    -0.035 C 
ATOM      4  C   UNL     1      -8.349  -1.389   0.000  1.00  0.00     0.007 C 
ATOM      5  C   UNL     1      -5.880  -2.198   0.000  1.00  0.00     0.015 C 
ATOM      6  C   UNL     1      -7.882   0.036   0.000  1.00  0.00     0.008 C 
ATOM      7  C   UNL     1      -5.413  -0.772   0.000  1.00  0.00     0.022 C 
ATOM      8  C   UNL     1      -6.414   0.345   0.000  1.00  0.00    -0.026 C 
ATOM      9  C   UNL     1      -3.945  -0.464   0.000  1.00  0.00    -0.064 C 
ATOM     10  C   UNL     1      -5.947   1.770   0.000  1.00  0.00     0.008 C 
ATOM     11  C   UNL     1      -3.478   0.962   0.000  1.00  0.00    -0.006 C 
ATOM     12  C   UNL     1      -2.944  -1.581   0.000  1.00  0.00    -0.027 C 
ATOM     13  C   UNL     1      -4.479   2.079   0.000  1.00  0.00     0.012 C 
ATOM     14  C   UNL     1      -2.010   1.270   0.000  1.00  0.00    -0.020 C 
ATOM     15  C   UNL     1      -1.476  -1.272   0.000  1.00  0.00     0.032 C 
ATOM     16  C   UNL     1      -1.544   2.696   0.000  1.00  0.00     0.008 C 
ATOM     17  C   UNL     1      -1.009   0.153   0.000  1.00  0.00     0.006 C 
ATOM     18  C   UNL     1      -0.076   3.004   0.000  1.00  0.00     0.005 C 
ATOM     19  C   UNL     1       0.459   0.461   0.000  1.00  0.00    -0.025 C 
ATOM     20  C   UNL     1       0.925   1.887   0.000  1.00  0.00     0.005 C 
ATOM     21  C   UNL     1       1.460  -0.656   0.000  1.00  0.00     0.011 C 
ATOM     22  C   UNL     1       2.393   2.195   0.000  1.00  0.00     0.005 C 
ATOM     23  C   UNL     1       2.928  -0.347   0.000  1.00  0.00     0.046 C 
ATOM     24  C   UNL     1      -6.789  -3.898   0.000  1.00  0.00     0.011 C 
ATOM     25  C   UNL     1      -8.622  -3.298   0.000  1.00  0.00     0.011 C 
ATOM     26  C   UNL     1      -7.415   1.462   0.000  1.00  0.00     0.012 C 
ATOM     27  C   UNL     1      -2.477  -0.155   0.000  1.00  0.00     0.017 C 
ATOM     28  C   UNL     1      -3.011   2.387   0.000  1.00  0.00     0.012 C 
ATOM     29  C   UNL     1      -0.008  -0.964   0.000  1.00  0.00     0.012 C 
ATOM     30  C   UNL     1       1.835   3.587   0.000  1.00  0.00     0.015 C 
ATOM     31  C   UNL     1       3.667   2.987   0.000  1.00  0.00     0.015 C 
ENDBRANCH   1   2
BRANCH   1  32
ATOM     32  C   UNL     1       5.864   0.270   0.000  1.00  0.00     0.310 C 
ATOM     33  O   UNL     1       5.397  -1.156   0.000  1.00  0.00    -0.252 OA
BRANCH  32  34
ATOM     34  C   UNL     1       7.332   0.578   0.000  1.00  0.00     0.158 C 
BRANCH  34  35
ATOM     35  C   UNL     1       8.333  -0.539   0.000  1.00  0.00    -0.037 A 
ATOM     36  C   UNL     1       7.866  -1.964   0.000  1.00  0.00     0.004 A 
ATOM     37  C   UNL     1       9.801  -0.231   0.000  1.00  0.00     0.004 A 
ATOM     38  C   UNL     1       8.867  -3.082   0.000  1.00  0.00     0.000 A 
ATOM     39  C   UNL     1      10.802  -1.347   0.000  1.00  0.00     0.000 A 
ATOM     40  C   UNL     1      10.335  -2.773   0.000  1.00  0.00     0.000 A 
ENDBRANCH  34  35
ENDBRANCH  32  34
ENDBRANCH   1  32
TORSDOF 4
