REMARK SMILES COc1cc(=O)n(C)c2c(OC)cccc12
REMARK SMILES IDX 3 1 4 2 5 3 6 4 7 5 8 6 9 7 10 8 13 9 14 10 15 11 16 12 2 13
REMARK SMILES IDX 1 14 11 15 12 16
REMARK H PARENT
ROOT
ATOM      1  C   UNL     1      -1.967   0.502   0.000  1.00  0.00     0.133 A 
ATOM      2  C   UNL     1      -2.304  -0.960   0.000  1.00  0.00     0.118 A 
ATOM      3  C   UNL     1      -1.207  -1.982   0.000  1.00  0.00     0.254 A 
ATOM      4  O   UNL     1      -1.544  -3.444   0.000  1.00  0.00    -0.269 OA
ATOM      5  N   UNL     1       0.227  -1.544   0.000  1.00  0.00    -0.308 N 
ATOM      6  C   UNL     1       1.324  -2.567   0.000  1.00  0.00     0.154 C 
ATOM      7  C   UNL     1       0.564  -0.082   0.000  1.00  0.00     0.097 A 
ATOM      8  C   UNL     1       1.999   0.357   0.000  1.00  0.00     0.143 A 
ATOM      9  C   UNL     1       2.336   1.818   0.000  1.00  0.00     0.049 A 
ATOM     10  C   UNL     1       1.239   2.841   0.000  1.00  0.00     0.005 A 
ATOM     11  C   UNL     1      -0.196   2.402   0.000  1.00  0.00     0.014 A 
ATOM     12  C   UNL     1      -0.533   0.941   0.000  1.00  0.00     0.044 A 
ENDROOT
BRANCH   1  13
ATOM     13  O   UNL     1      -3.064   1.525   0.000  1.00  0.00    -0.496 OA
ATOM     14  C   UNL     1      -4.499   1.086   0.000  1.00  0.00     0.278 C 
ENDBRANCH   1  13
BRANCH   8  15
ATOM     15  O   UNL     1       3.096  -0.666   0.000  1.00  0.00    -0.495 OA
ATOM     16  C   UNL     1       4.530  -0.227   0.000  1.00  0.00     0.278 C 
ENDBRANCH   8  15
TORSDOF 2
