REMARK SMILES C=CC1C(C[C@@H]2N[C@H](C(=O)O)Cc3c2[nH]c2ccccc32)C(C(=O)OC)=CO[C@H]1O[C@@H]1O[C@H](CO)[C@@H](O)[C@H](O)[C@H]1O
REMARK SMILES IDX 3 1 4 2 22 3 27 4 28 5 29 6 2 7 1 8 5 9 6 10 7 11 14 12 8 13
REMARK SMILES IDX 13 14 15 15 12 16 21 17 16 18 20 19 17 20 19 21 18 22 9 25
REMARK SMILES IDX 10 26 11 27 30 29 31 30 32 31 40 32 33 33 38 34 36 35 41 36
REMARK SMILES IDX 34 38 35 39 39 41 37 43 23 45 24 46 25 47 26 48
REMARK H PARENT 7 23 15 24 11 28 41 37 35 40 39 42 37 44
ROOT
ATOM      1  C   UNL     1      -0.450  -0.379   0.000  1.00  0.00     0.088 C 
ATOM      2  C   UNL     1       0.394  -1.619   0.000  1.00  0.00     0.045 C 
ATOM      3  C   UNL     1      -0.259  -2.970   0.000  1.00  0.00     0.076 C 
ATOM      4  C   UNL     1      -1.755  -3.080   0.000  1.00  0.00     0.202 C 
ATOM      5  O   UNL     1      -2.598  -1.840   0.000  1.00  0.00    -0.471 OA
ATOM      6  C   UNL     1      -1.946  -0.489   0.000  1.00  0.00     0.316 C 
ENDROOT
BRANCH   1   7
ATOM      7  C   UNL     1       0.203   0.972   0.000  1.00  0.00    -0.024 C 
ATOM      8  C   UNL     1      -0.640   2.212   0.000  1.00  0.00     0.004 C 
ENDBRANCH   1   7
BRANCH   2   9
ATOM      9  C   UNL     1       1.890  -1.509   0.000  1.00  0.00     0.035 C 
BRANCH   9  10
ATOM     10  C   UNL     1       2.542  -0.159   0.000  1.00  0.00     0.102 C 
ATOM     11  N   UNL     1       1.699   1.082   0.000  1.00  0.00    -0.296 NA
ATOM     12  C   UNL     1       4.038  -0.049   0.000  1.00  0.00     0.036 A 
ATOM     13  C   UNL     1       2.351   2.433   0.000  1.00  0.00     0.169 C 
ATOM     14  C   UNL     1       4.691   1.302   0.000  1.00  0.00    -0.016 A 
ATOM     15  N   UNL     1       5.121  -1.087   0.000  1.00  0.00    -0.357 N 
ATOM     16  C   UNL     1       3.847   2.543   0.000  1.00  0.00     0.069 C 
ATOM     17  C   UNL     1       6.177   1.099   0.000  1.00  0.00     0.003 A 
ATOM     18  C   UNL     1       6.443  -0.377   0.000  1.00  0.00     0.046 A 
ATOM     19  C   UNL     1       7.322   2.067   0.000  1.00  0.00     0.010 A 
ATOM     20  C   UNL     1       7.854  -0.885   0.000  1.00  0.00     0.026 A 
ATOM     21  C   UNL     1       8.734   1.559   0.000  1.00  0.00     0.001 A 
ATOM     22  C   UNL     1       9.000   0.083   0.000  1.00  0.00     0.002 A 
ATOM     23  H   UNL     1       0.000   0.000   0.000  1.00  0.00     0.124 HD
ATOM     24  H   UNL     1       0.000   0.000   0.000  1.00  0.00     0.166 HD
BRANCH  13  25
ATOM     25  C   UNL     1       1.508   3.673   0.000  1.00  0.00     0.321 C 
ATOM     26  O   UNL     1       0.012   3.563   0.000  1.00  0.00    -0.251 OA
BRANCH  25  27
ATOM     27  O   UNL     1       2.161   5.024   0.000  1.00  0.00    -0.480 OA
ATOM     28  H   UNL     1       0.000   0.000   0.000  1.00  0.00     0.296 HD
ENDBRANCH  25  27
ENDBRANCH  13  25
ENDBRANCH   9  10
ENDBRANCH   2   9
BRANCH   6  29
ATOM     29  O   UNL     1      -2.789   0.751   0.000  1.00  0.00    -0.310 OA
BRANCH  29  30
ATOM     30  C   UNL     1      -4.285   0.641   0.000  1.00  0.00     0.286 C 
ATOM     31  O   UNL     1      -5.128   1.882   0.000  1.00  0.00    -0.341 OA
ATOM     32  C   UNL     1      -4.938  -0.709   0.000  1.00  0.00     0.202 C 
ATOM     33  C   UNL     1      -6.624   1.772   0.000  1.00  0.00     0.178 C 
ATOM     34  C   UNL     1      -6.434  -0.819   0.000  1.00  0.00     0.179 C 
ATOM     35  C   UNL     1      -7.277   0.421   0.000  1.00  0.00     0.177 C 
BRANCH  32  36
ATOM     36  O   UNL     1      -4.094  -1.950   0.000  1.00  0.00    -0.385 OA
ATOM     37  H   UNL     1       0.000   0.000   0.000  1.00  0.00     0.211 HD
ENDBRANCH  32  36
BRANCH  33  38
ATOM     38  C   UNL     1      -7.468   3.012   0.000  1.00  0.00     0.191 C 
BRANCH  38  39
ATOM     39  O   UNL     1      -6.815   4.363   0.000  1.00  0.00    -0.394 OA
ATOM     40  H   UNL     1       0.000   0.000   0.000  1.00  0.00     0.210 HD
ENDBRANCH  38  39
ENDBRANCH  33  38
BRANCH  34  41
ATOM     41  O   UNL     1      -7.086  -2.170   0.000  1.00  0.00    -0.387 OA
ATOM     42  H   UNL     1       0.000   0.000   0.000  1.00  0.00     0.211 HD
ENDBRANCH  34  41
BRANCH  35  43
ATOM     43  O   UNL     1      -8.773   0.311   0.000  1.00  0.00    -0.387 OA
ATOM     44  H   UNL     1       0.000   0.000   0.000  1.00  0.00     0.211 HD
ENDBRANCH  35  43
ENDBRANCH  29  30
ENDBRANCH   6  29
BRANCH   3  45
ATOM     45  C   UNL     1       0.584  -4.210   0.000  1.00  0.00     0.337 C 
ATOM     46  O   UNL     1       2.080  -4.100   0.000  1.00  0.00    -0.246 OA
BRANCH  45  47
ATOM     47  O   UNL     1      -0.068  -5.561   0.000  1.00  0.00    -0.466 OA
ATOM     48  C   UNL     1       0.775  -6.801   0.000  1.00  0.00     0.282 C 
ENDBRANCH  45  47
ENDBRANCH   3  45
TORSDOF 14
