REMARK SMILES C[C@H]1OC(=O)c2ccc(O)c(C(=O)O)c2[C@H]1O
REMARK SMILES IDX 1 1 2 2 3 3 4 4 5 5 6 6 7 7 8 8 9 9 11 10 15 11 16 12 17 13
REMARK SMILES IDX 12 15 13 16 14 17 10 19
REMARK H PARENT 17 14 14 18 10 20
ROOT
ATOM      1  C   UNL     1      -3.088   2.598   0.000  1.00  0.00     0.056 C 
ATOM      2  C   UNL     1      -2.338   1.299   0.000  1.00  0.00     0.207 C 
ATOM      3  O   UNL     1      -3.088  -0.000   0.000  1.00  0.00    -0.456 OA
ATOM      4  C   UNL     1      -2.338  -1.299   0.000  1.00  0.00     0.338 C 
ATOM      5  O   UNL     1      -3.088  -2.598   0.000  1.00  0.00    -0.246 OA
ATOM      6  C   UNL     1      -0.838  -1.299   0.000  1.00  0.00     0.067 A 
ATOM      7  C   UNL     1      -0.088  -2.598   0.000  1.00  0.00     0.020 A 
ATOM      8  C   UNL     1       1.412  -2.598   0.000  1.00  0.00     0.048 A 
ATOM      9  C   UNL     1       2.162  -1.299   0.000  1.00  0.00     0.130 A 
ATOM     10  C   UNL     1       1.412   0.000   0.000  1.00  0.00     0.108 A 
ATOM     11  C   UNL     1      -0.088   0.000   0.000  1.00  0.00     0.017 A 
ATOM     12  C   UNL     1      -0.838   1.299   0.000  1.00  0.00     0.187 C 
ENDROOT
BRANCH  12  13
ATOM     13  O   UNL     1      -0.088   2.598   0.000  1.00  0.00    -0.384 OA
ATOM     14  H   UNL     1       0.000   0.000   0.000  1.00  0.00     0.211 HD
ENDBRANCH  12  13
BRANCH  10  15
ATOM     15  C   UNL     1       2.162   1.299   0.000  1.00  0.00     0.339 C 
ATOM     16  O   UNL     1       1.412   2.598   0.000  1.00  0.00    -0.246 OA
BRANCH  15  17
ATOM     17  O   UNL     1       3.662   1.299   0.000  1.00  0.00    -0.478 OA
ATOM     18  H   UNL     1       0.000   0.000   0.000  1.00  0.00     0.297 HD
ENDBRANCH  15  17
ENDBRANCH  10  15
BRANCH   9  19
ATOM     19  O   UNL     1       3.662  -1.299   0.000  1.00  0.00    -0.507 OA
ATOM     20  H   UNL     1       0.000   0.000   0.000  1.00  0.00     0.293 HD
ENDBRANCH   9  19
TORSDOF 4
