REMARK SMILES COc1ccc(CCC(=O)O)c2c1C=CC(C)(C)O2
REMARK SMILES IDX 7 1 6 2 3 3 4 4 13 5 5 6 12 7 14 8 19 9 15 10 16 11 17 12
REMARK SMILES IDX 18 13 2 14 1 15 8 16 9 17 10 18 11 19
REMARK H PARENT 11 20
ROOT
ATOM      1  C   UNL     1      -2.132   0.055   0.000  1.00  0.00     0.051 C 
ENDROOT
BRANCH   1   2
ATOM      2  C   UNL     1      -0.774  -0.583   0.000  1.00  0.00    -0.004 A 
ATOM      3  C   UNL     1       1.941  -1.859   0.000  1.00  0.00     0.129 A 
ATOM      4  C   UNL     1       0.710  -2.715   0.000  1.00  0.00     0.047 A 
ATOM      5  C   UNL     1       1.815  -0.364   0.000  1.00  0.00     0.059 A 
ATOM      6  C   UNL     1      -0.647  -2.078   0.000  1.00  0.00     0.011 A 
ATOM      7  C   UNL     1       0.457   0.274   0.000  1.00  0.00     0.134 A 
ATOM      8  C   UNL     1       3.046   0.493   0.000  1.00  0.00     0.015 C 
ATOM      9  O   UNL     1       0.331   1.768   0.000  1.00  0.00    -0.483 OA
ATOM     10  C   UNL     1       2.919   1.988   0.000  1.00  0.00     0.021 C 
ATOM     11  C   UNL     1       1.562   2.625   0.000  1.00  0.00     0.122 C 
ATOM     12  C   UNL     1       0.504   3.689   0.000  1.00  0.00     0.061 C 
ATOM     13  C   UNL     1       2.425   3.852   0.000  1.00  0.00     0.061 C 
BRANCH   3  14
ATOM     14  O   UNL     1       3.299  -2.496   0.000  1.00  0.00    -0.496 OA
ATOM     15  C   UNL     1       3.426  -3.991   0.000  1.00  0.00     0.278 C 
ENDBRANCH   3  14
ENDBRANCH   1   2
BRANCH   1  16
ATOM     16  C   UNL     1      -3.363  -0.802   0.000  1.00  0.00     0.127 C 
BRANCH  16  17
ATOM     17  C   UNL     1      -4.721  -0.165   0.000  1.00  0.00     0.303 C 
ATOM     18  O   UNL     1      -4.847   1.330   0.000  1.00  0.00    -0.252 OA
BRANCH  17  19
ATOM     19  O   UNL     1      -5.952  -1.022   0.000  1.00  0.00    -0.481 OA
ATOM     20  H   UNL     1       0.000   0.000   0.000  1.00  0.00     0.296 HD
ENDBRANCH  17  19
ENDBRANCH  16  17
ENDBRANCH   1  16
TORSDOF 5
