REMARK SMILES COc1ccc(Cc2nccc3cc(OC)c(OC)cc23)cc1
REMARK SMILES IDX 7 1 6 2 3 3 4 4 23 5 5 6 22 7 2 8 1 9 8 10 9 11 21 12 10 13
REMARK SMILES IDX 20 14 12 15 11 16 17 17 13 18 14 19 18 20 19 21 15 22 16 23
REMARK H PARENT
ROOT
ATOM      1  C   UNL     1      -0.952   0.662   0.000  1.00  0.00     0.092 C 
ENDROOT
BRANCH   1   2
ATOM      2  C   UNL     1      -2.437   0.448   0.000  1.00  0.00    -0.042 A 
ATOM      3  C   UNL     1      -5.406   0.021   0.000  1.00  0.00     0.118 A 
ATOM      4  C   UNL     1      -4.849   1.413   0.000  1.00  0.00     0.047 A 
ATOM      5  C   UNL     1      -4.479  -1.158   0.000  1.00  0.00     0.047 A 
ATOM      6  C   UNL     1      -3.364   1.627   0.000  1.00  0.00     0.008 A 
ATOM      7  C   UNL     1      -2.994  -0.944   0.000  1.00  0.00     0.008 A 
BRANCH   3   8
ATOM      8  O   UNL     1      -6.891  -0.193   0.000  1.00  0.00    -0.497 OA
ATOM      9  C   UNL     1      -7.818   0.986   0.000  1.00  0.00     0.278 C 
ENDBRANCH   3   8
ENDBRANCH   1   2
BRANCH   1  10
ATOM     10  C   UNL     1      -0.024  -0.517   0.000  1.00  0.00     0.053 A 
ATOM     11  N   UNL     1      -0.582  -1.910   0.000  1.00  0.00    -0.260 NA
ATOM     12  C   UNL     1       1.460  -0.303   0.000  1.00  0.00     0.008 A 
ATOM     13  C   UNL     1       0.346  -3.089   0.000  1.00  0.00     0.112 A 
ATOM     14  C   UNL     1       2.018   1.089   0.000  1.00  0.00     0.061 A 
ATOM     15  C   UNL     1       2.388  -1.482   0.000  1.00  0.00    -0.011 A 
ATOM     16  C   UNL     1       1.830  -2.875   0.000  1.00  0.00     0.029 A 
ATOM     17  C   UNL     1       3.502   1.303   0.000  1.00  0.00     0.161 A 
ATOM     18  C   UNL     1       3.872  -1.269   0.000  1.00  0.00     0.059 A 
ATOM     19  C   UNL     1       4.430   0.124   0.000  1.00  0.00     0.161 A 
BRANCH  17  20
ATOM     20  O   UNL     1       4.060   2.696   0.000  1.00  0.00    -0.493 OA
ATOM     21  C   UNL     1       3.132   3.874   0.000  1.00  0.00     0.278 C 
ENDBRANCH  17  20
BRANCH  19  22
ATOM     22  O   UNL     1       5.914   0.338   0.000  1.00  0.00    -0.493 OA
ATOM     23  C   UNL     1       6.842  -0.841   0.000  1.00  0.00     0.278 C 
ENDBRANCH  19  22
ENDBRANCH   1  10
TORSDOF 5
