REMARK SMILES CC[C@H]1C(=O)CC2C3CCC4C[C@@H](OC(C)=O)[C@@]5(OC(C)=O)C[C@]4(CO5)C3CC[C@@]21C
REMARK SMILES IDX 3 1 4 2 5 3 6 4 7 5 8 6 9 7 10 8 11 9 12 10 13 11 18 12
REMARK SMILES IDX 23 13 24 14 25 15 26 16 27 17 28 18 29 19 30 20 31 21 2 22
REMARK SMILES IDX 1 23 19 24 20 25 21 26 22 27 14 28 15 29 16 30 17 31
REMARK H PARENT
ROOT
ATOM      1  C   UNL     1      -5.333   0.413   0.000  1.00  0.00     0.062 C 
ATOM      2  C   UNL     1      -5.719  -1.037   0.000  1.00  0.00     0.136 C 
ATOM      3  O   UNL     1      -7.119  -1.576   0.000  1.00  0.00    -0.299 OA
ATOM      4  C   UNL     1      -4.460  -1.852   0.000  1.00  0.00     0.080 C 
ATOM      5  C   UNL     1      -3.296  -0.907   0.000  1.00  0.00     0.006 C 
ATOM      6  C   UNL     1      -1.814  -1.139   0.000  1.00  0.00    -0.003 C 
ATOM      7  C   UNL     1      -1.275  -2.539   0.000  1.00  0.00     0.004 C 
ATOM      8  C   UNL     1       0.207  -2.772   0.000  1.00  0.00     0.005 C 
ATOM      9  C   UNL     1       1.150  -1.605   0.000  1.00  0.00     0.002 C 
ATOM     10  C   UNL     1       2.648  -1.668   0.000  1.00  0.00     0.056 C 
ATOM     11  C   UNL     1       3.453  -0.402   0.000  1.00  0.00     0.249 C 
ATOM     12  C   UNL     1       2.758   0.928   0.000  1.00  0.00     0.251 C 
ATOM     13  C   UNL     1       2.091  -0.416   0.000  1.00  0.00     0.094 C 
ATOM     14  C   UNL     1       0.607  -0.196   0.000  1.00  0.00     0.006 C 
ATOM     15  C   UNL     1       0.357   1.283   0.000  1.00  0.00     0.173 C 
ATOM     16  O   UNL     1       1.687   1.978   0.000  1.00  0.00    -0.337 OA
ATOM     17  C   UNL     1      -0.872   0.028   0.000  1.00  0.00     0.001 C 
ATOM     18  C   UNL     1      -1.411   1.427   0.000  1.00  0.00     0.005 C 
ATOM     19  C   UNL     1      -2.893   1.660   0.000  1.00  0.00     0.008 C 
ATOM     20  C   UNL     1      -3.835   0.493   0.000  1.00  0.00    -0.019 C 
ATOM     21  C   UNL     1      -4.518   1.829   0.000  1.00  0.00     0.012 C 
ENDROOT
BRANCH   1  22
ATOM     22  C   UNL     1      -6.279   1.577   0.000  1.00  0.00     0.008 C 
ATOM     23  C   UNL     1      -7.760   1.341   0.000  1.00  0.00     0.005 C 
ENDBRANCH   1  22
BRANCH  12  24
ATOM     24  O   UNL     1       4.237   1.177   0.000  1.00  0.00    -0.429 OA
BRANCH  24  25
ATOM     25  C   UNL     1       4.761   2.583   0.000  1.00  0.00     0.305 C 
ATOM     26  C   UNL     1       6.240   2.833   0.000  1.00  0.00     0.139 C 
ATOM     27  O   UNL     1       3.805   3.739   0.000  1.00  0.00    -0.253 OA
ENDBRANCH  24  25
ENDBRANCH  12  24
BRANCH  11  28
ATOM     28  O   UNL     1       4.951  -0.465   0.000  1.00  0.00    -0.456 OA
BRANCH  28  29
ATOM     29  C   UNL     1       5.646  -1.795   0.000  1.00  0.00     0.303 C 
ATOM     30  C   UNL     1       7.144  -1.858   0.000  1.00  0.00     0.139 C 
ATOM     31  O   UNL     1       4.841  -3.061   0.000  1.00  0.00    -0.253 OA
ENDBRANCH  28  29
ENDBRANCH  11  28
TORSDOF 5
