REMARK SMILES C=CC(=C)CCC=C(C)C
REMARK SMILES IDX 5 1 3 2 4 3 2 4 1 5 6 6 7 7 8 8 9 9 10 10
REMARK H PARENT
ROOT
ATOM      1  C   UNL     1      -0.779   0.750   0.000  1.00  0.00     0.039 C 
ENDROOT
BRANCH   1   2
ATOM      2  C   UNL     1      -2.079   0.000   0.000  1.00  0.00    -0.055 C 
ATOM      3  C   UNL     1      -2.079  -1.500   0.000  1.00  0.00     0.012 C 
BRANCH   2   4
ATOM      4  C   UNL     1      -3.377   0.750   0.000  1.00  0.00    -0.005 C 
ATOM      5  C   UNL     1      -4.676   0.000   0.000  1.00  0.00     0.009 C 
ENDBRANCH   2   4
ENDBRANCH   1   2
BRANCH   1   6
ATOM      6  C   UNL     1       0.520  -0.000   0.000  1.00  0.00     0.032 C 
BRANCH   6   7
ATOM      7  C   UNL     1       1.819   0.750   0.000  1.00  0.00    -0.028 C 
BRANCH   7   8
ATOM      8  C   UNL     1       3.118  -0.000   0.000  1.00  0.00    -0.080 C 
ATOM      9  C   UNL     1       4.417   0.750   0.000  1.00  0.00     0.039 C 
ATOM     10  C   UNL     1       3.118  -1.500   0.000  1.00  0.00     0.039 C 
ENDBRANCH   7   8
ENDBRANCH   6   7
ENDBRANCH   1   6
TORSDOF 5
