REMARK SMILES C=C(CC[C@@H](C)[C@H]1CC[C@@]2(C)[C@@H]3CC=C4C(C)(C)[C@@H](O)CC[C@@]45C[C@@]35CC[C@]12C)C(C)C
REMARK SMILES IDX 4 1 3 2 2 3 1 4 30 5 31 6 32 7 5 8 6 9 7 10 8 11 28 12 9 13
REMARK SMILES IDX 27 14 10 15 26 16 12 17 25 18 13 19 24 20 23 21 14 22 22 23
REMARK SMILES IDX 15 24 21 25 16 26 19 27 29 28 11 29 17 30 18 31 20 32
REMARK H PARENT 20 33
ROOT
ATOM      1  C   UNL     1      -4.266   0.203   0.000  1.00  0.00     0.008 C 
ENDROOT
BRANCH   1   2
ATOM      2  C   UNL     1      -5.698  -0.241   0.000  1.00  0.00     0.031 C 
BRANCH   2   3
ATOM      3  C   UNL     1      -6.030  -1.704   0.000  1.00  0.00    -0.075 C 
ATOM      4  C   UNL     1      -7.463  -2.148   0.000  1.00  0.00     0.008 C 
BRANCH   3   5
ATOM      5  C   UNL     1      -4.929  -2.723   0.000  1.00  0.00     0.008 C 
ATOM      6  C   UNL     1      -5.261  -4.185   0.000  1.00  0.00     0.012 C 
ATOM      7  C   UNL     1      -3.497  -2.278   0.000  1.00  0.00     0.012 C 
ENDBRANCH   3   5
ENDBRANCH   2   3
ENDBRANCH   1   2
BRANCH   1   8
ATOM      8  C   UNL     1      -3.934   1.666   0.000  1.00  0.00    -0.010 C 
ATOM      9  C   UNL     1      -5.035   2.685   0.000  1.00  0.00     0.008 C 
BRANCH   8  10
ATOM     10  C   UNL     1      -2.501   2.110   0.000  1.00  0.00    -0.002 C 
ATOM     11  C   UNL     1      -2.018   3.530   0.000  1.00  0.00     0.005 C 
ATOM     12  C   UNL     1      -1.300   1.212   0.000  1.00  0.00    -0.024 C 
ATOM     13  C   UNL     1      -0.518   3.510   0.000  1.00  0.00     0.008 C 
ATOM     14  C   UNL     1      -1.163  -0.282   0.000  1.00  0.00     0.008 C 
ATOM     15  C   UNL     1      -0.074   2.077   0.000  1.00  0.00    -0.023 C 
ATOM     16  C   UNL     1       0.199  -0.911   0.000  1.00  0.00     0.009 C 
ATOM     17  C   UNL     1       1.288   1.448   0.000  1.00  0.00     0.006 C 
ATOM     18  C   UNL     1       1.424  -0.045   0.000  1.00  0.00    -0.016 C 
ATOM     19  C   UNL     1       2.513   2.313   0.000  1.00  0.00     0.032 C 
ATOM     20  C   UNL     1       1.561  -1.539   0.000  1.00  0.00     0.020 C 
ATOM     21  C   UNL     1       2.786  -0.674   0.000  1.00  0.00    -0.002 C 
ATOM     22  C   UNL     1       3.875   1.685   0.000  1.00  0.00    -0.026 C 
ATOM     23  C   UNL     1       2.922  -2.168   0.000  1.00  0.00     0.015 C 
ATOM     24  C   UNL     1       4.011   0.191   0.000  1.00  0.00    -0.059 C 
ATOM     25  C   UNL     1       4.284  -2.797   0.000  1.00  0.00     0.033 C 
ATOM     26  C   UNL     1       5.373  -0.438   0.000  1.00  0.00     0.012 C 
ATOM     27  C   UNL     1       5.510  -1.932   0.000  1.00  0.00     0.124 C 
ATOM     28  C   UNL     1      -2.609   0.480   0.000  1.00  0.00     0.012 C 
ATOM     29  C   UNL     1       1.054   3.065   0.000  1.00  0.00     0.012 C 
ATOM     30  C   UNL     1       6.868  -0.563   0.000  1.00  0.00     0.018 C 
ATOM     31  C   UNL     1       5.756   1.012   0.000  1.00  0.00     0.018 C 
BRANCH  27  32
ATOM     32  O   UNL     1       6.872  -2.560   0.000  1.00  0.00    -0.392 OA
ATOM     33  H   UNL     1       0.000   0.000   0.000  1.00  0.00     0.210 HD
ENDBRANCH  27  32
ENDBRANCH   8  10
ENDBRANCH   1   8
TORSDOF 6
