REMARK SMILES O=C(O)CCCCCCCCCCCCCCCCCCCCc1ccc2c(c1)OCO2
REMARK SMILES IDX 12 1 11 2 10 3 9 4 8 5 7 6 6 7 5 8 4 9 2 10 1 11 3 12 13 14
REMARK SMILES IDX 14 15 15 16 16 17 17 18 18 19 19 20 20 21 21 22 22 23 23 24
REMARK SMILES IDX 24 25 25 26 29 27 26 28 28 29 27 30 30 31 32 32 31 33
REMARK H PARENT 3 13
ROOT
ATOM      1  C   UNL     1       5.104  -0.332   0.000  1.00  0.00     0.000 C 
ENDROOT
BRANCH   1   2
ATOM      2  C   UNL     1       6.434   0.362   0.000  1.00  0.00     0.000 C 
BRANCH   2   3
ATOM      3  C   UNL     1       7.700  -0.442   0.000  1.00  0.00     0.000 C 
BRANCH   3   4
ATOM      4  C   UNL     1       9.030   0.253   0.000  1.00  0.00     0.000 C 
BRANCH   4   5
ATOM      5  C   UNL     1      10.296  -0.551   0.000  1.00  0.00     0.000 C 
BRANCH   5   6
ATOM      6  C   UNL     1      11.625   0.143   0.000  1.00  0.00     0.000 C 
BRANCH   6   7
ATOM      7  C   UNL     1      12.892  -0.660   0.000  1.00  0.00     0.001 C 
BRANCH   7   8
ATOM      8  C   UNL     1      14.221   0.034   0.000  1.00  0.00     0.012 C 
BRANCH   8   9
ATOM      9  C   UNL     1      15.488  -0.770   0.000  1.00  0.00     0.122 C 
BRANCH   9  10
ATOM     10  C   UNL     1      16.817  -0.075   0.000  1.00  0.00     0.303 C 
ATOM     11  O   UNL     1      16.880   1.423   0.000  1.00  0.00    -0.252 OA
BRANCH  10  12
ATOM     12  O   UNL     1      18.083  -0.879   0.000  1.00  0.00    -0.481 OA
ATOM     13  H   UNL     1       0.000   0.000   0.000  1.00  0.00     0.296 HD
ENDBRANCH  10  12
ENDBRANCH   9  10
ENDBRANCH   8   9
ENDBRANCH   7   8
ENDBRANCH   6   7
ENDBRANCH   5   6
ENDBRANCH   4   5
ENDBRANCH   3   4
ENDBRANCH   2   3
ENDBRANCH   1   2
BRANCH   1  14
ATOM     14  C   UNL     1       3.838   0.472   0.000  1.00  0.00     0.000 C 
BRANCH  14  15
ATOM     15  C   UNL     1       2.509  -0.223   0.000  1.00  0.00     0.000 C 
BRANCH  15  16
ATOM     16  C   UNL     1       1.242   0.581   0.000  1.00  0.00     0.000 C 
BRANCH  16  17
ATOM     17  C   UNL     1      -0.087  -0.114   0.000  1.00  0.00     0.000 C 
BRANCH  17  18
ATOM     18  C   UNL     1      -1.353   0.690   0.000  1.00  0.00     0.000 C 
BRANCH  18  19
ATOM     19  C   UNL     1      -2.683  -0.004   0.000  1.00  0.00     0.000 C 
BRANCH  19  20
ATOM     20  C   UNL     1      -3.949   0.800   0.000  1.00  0.00     0.000 C 
BRANCH  20  21
ATOM     21  C   UNL     1      -5.279   0.105   0.000  1.00  0.00     0.000 C 
BRANCH  21  22
ATOM     22  C   UNL     1      -6.545   0.909   0.000  1.00  0.00     0.000 C 
BRANCH  22  23
ATOM     23  C   UNL     1      -7.875   0.214   0.000  1.00  0.00     0.005 C 
BRANCH  23  24
ATOM     24  C   UNL     1      -9.141   1.018   0.000  1.00  0.00     0.035 C 
BRANCH  24  25
ATOM     25  C   UNL     1     -10.470   0.324   0.000  1.00  0.00    -0.044 A 
ATOM     26  C   UNL     1     -10.533  -1.175   0.000  1.00  0.00     0.008 A 
ATOM     27  C   UNL     1     -11.736   1.128   0.000  1.00  0.00     0.054 A 
ATOM     28  C   UNL     1     -11.863  -1.869   0.000  1.00  0.00     0.051 A 
ATOM     29  C   UNL     1     -13.066   0.433   0.000  1.00  0.00     0.166 A 
ATOM     30  C   UNL     1     -13.129  -1.065   0.000  1.00  0.00     0.165 A 
ATOM     31  O   UNL     1     -14.472   0.956   0.000  1.00  0.00    -0.454 OA
ATOM     32  O   UNL     1     -14.574  -1.468   0.000  1.00  0.00    -0.454 OA
ATOM     33  C   UNL     1     -15.404  -0.219   0.000  1.00  0.00     0.468 C 
ENDBRANCH  24  25
ENDBRANCH  23  24
ENDBRANCH  22  23
ENDBRANCH  21  22
ENDBRANCH  20  21
ENDBRANCH  19  20
ENDBRANCH  18  19
ENDBRANCH  17  18
ENDBRANCH  16  17
ENDBRANCH  15  16
ENDBRANCH  14  15
ENDBRANCH   1  14
TORSDOF 22
