REMARK SMILES COc1c(CCCCCCCCCCCC(C)(C)O)[nH]c2ccccc2c1=O
REMARK SMILES IDX 10 1 9 2 8 3 7 4 6 5 5 6 4 7 3 8 27 9 20 10 26 11 21 12
REMARK SMILES IDX 25 13 22 14 24 15 23 16 28 17 2 19 1 20 11 21 12 22 13 23
REMARK SMILES IDX 14 24 15 25 16 26 17 27 18 28 19 29
REMARK H PARENT 20 18 19 30
ROOT
ATOM      1  C   UNL     1      -3.367  -0.236   0.000  1.00  0.00     0.000 C 
ENDROOT
BRANCH   1   2
ATOM      2  C   UNL     1      -2.126  -1.079   0.000  1.00  0.00     0.000 C 
BRANCH   2   3
ATOM      3  C   UNL     1      -0.776  -0.426   0.000  1.00  0.00     0.000 C 
BRANCH   3   4
ATOM      4  C   UNL     1       0.465  -1.270   0.000  1.00  0.00     0.000 C 
BRANCH   4   5
ATOM      5  C   UNL     1       1.815  -0.617   0.000  1.00  0.00     0.006 C 
BRANCH   5   6
ATOM      6  C   UNL     1       3.056  -1.460   0.000  1.00  0.00     0.058 C 
BRANCH   6   7
ATOM      7  C   UNL     1       4.407  -0.807   0.000  1.00  0.00     0.062 A 
ATOM      8  C   UNL     1       4.516   0.689   0.000  1.00  0.00     0.186 A 
ATOM      9  C   UNL     1       5.867   1.342   0.000  1.00  0.00     0.231 A 
ATOM     10  N   UNL     1       5.647  -1.650   0.000  1.00  0.00    -0.355 N 
ATOM     11  C   UNL     1       7.107   0.498   0.000  1.00  0.00     0.049 A 
ATOM     12  C   UNL     1       6.998  -0.998   0.000  1.00  0.00     0.050 A 
ATOM     13  C   UNL     1       8.458   1.151   0.000  1.00  0.00     0.014 A 
ATOM     14  C   UNL     1       8.238  -1.841   0.000  1.00  0.00     0.027 A 
ATOM     15  C   UNL     1       9.699   0.308   0.000  1.00  0.00     0.001 A 
ATOM     16  C   UNL     1       9.589  -1.188   0.000  1.00  0.00     0.002 A 
ATOM     17  O   UNL     1       5.977   2.838   0.000  1.00  0.00    -0.285 OA
ATOM     18  H   UNL     1       0.000   0.000   0.000  1.00  0.00     0.166 HD
BRANCH   8  19
ATOM     19  O   UNL     1       3.276   1.532   0.000  1.00  0.00    -0.491 OA
ATOM     20  C   UNL     1       3.386   3.028   0.000  1.00  0.00     0.278 C 
ENDBRANCH   8  19
ENDBRANCH   6   7
ENDBRANCH   5   6
ENDBRANCH   4   5
ENDBRANCH   3   4
ENDBRANCH   2   3
ENDBRANCH   1   2
BRANCH   1  21
ATOM     21  C   UNL     1      -4.717  -0.889   0.000  1.00  0.00     0.000 C 
BRANCH  21  22
ATOM     22  C   UNL     1      -5.958  -0.046   0.000  1.00  0.00     0.000 C 
BRANCH  22  23
ATOM     23  C   UNL     1      -7.308  -0.699   0.000  1.00  0.00     0.000 C 
BRANCH  23  24
ATOM     24  C   UNL     1      -8.549   0.145   0.000  1.00  0.00     0.003 C 
BRANCH  24  25
ATOM     25  C   UNL     1      -9.899  -0.508   0.000  1.00  0.00     0.034 C 
BRANCH  25  26
ATOM     26  C   UNL     1     -11.140   0.335   0.000  1.00  0.00     0.059 C 
ATOM     27  C   UNL     1     -10.297   1.575   0.000  1.00  0.00     0.042 C 
ATOM     28  C   UNL     1     -11.983  -0.906   0.000  1.00  0.00     0.042 C 
BRANCH  26  29
ATOM     29  O   UNL     1     -12.381   1.178   0.000  1.00  0.00    -0.390 OA
ATOM     30  H   UNL     1       0.000   0.000   0.000  1.00  0.00     0.211 HD
ENDBRANCH  26  29
ENDBRANCH  25  26
ENDBRANCH  24  25
ENDBRANCH  23  24
ENDBRANCH  22  23
ENDBRANCH  21  22
ENDBRANCH   1  21
TORSDOF 14
