REMARK SMILES CC(=O)OC(C)(C)CNC(=O)C=CC=Cc1ccc2c(c1)OCO2
REMARK SMILES IDX 9 1 10 2 11 3 8 5 5 6 6 7 7 8 4 9 2 10 1 11 3 12 12 13 13 14
REMARK SMILES IDX 14 15 15 16 16 17 17 18 21 19 18 20 20 21 19 22 22 23 24 24
REMARK SMILES IDX 23 25
REMARK H PARENT 9 4
ROOT
ATOM      1  N   UNL     1       3.617   0.502   0.000  1.00  0.00    -0.349 N 
ATOM      2  C   UNL     1       2.304   1.229   0.000  1.00  0.00     0.244 C 
ATOM      3  O   UNL     1       2.277   2.729   0.000  1.00  0.00    -0.270 OA
ATOM      4  H   UNL     1       0.000   0.000   0.000  1.00  0.00     0.163 HD
ENDROOT
BRANCH   1   5
ATOM      5  C   UNL     1       4.902   1.276   0.000  1.00  0.00     0.164 C 
BRANCH   5   6
ATOM      6  C   UNL     1       6.214   0.549   0.000  1.00  0.00     0.124 C 
ATOM      7  C   UNL     1       5.488  -0.763   0.000  1.00  0.00     0.058 C 
ATOM      8  C   UNL     1       6.941   1.861   0.000  1.00  0.00     0.058 C 
BRANCH   6   9
ATOM      9  O   UNL     1       7.527  -0.178   0.000  1.00  0.00    -0.458 OA
BRANCH   9  10
ATOM     10  C   UNL     1       7.553  -1.677   0.000  1.00  0.00     0.303 C 
ATOM     11  C   UNL     1       8.866  -2.404   0.000  1.00  0.00     0.139 C 
ATOM     12  O   UNL     1       6.268  -2.450   0.000  1.00  0.00    -0.253 OA
ENDBRANCH   9  10
ENDBRANCH   6   9
ENDBRANCH   5   6
ENDBRANCH   1   5
BRANCH   2  13
ATOM     13  C   UNL     1       1.019   0.456   0.000  1.00  0.00     0.071 C 
BRANCH  13  14
ATOM     14  C   UNL     1      -0.293   1.182   0.000  1.00  0.00     0.006 C 
BRANCH  14  15
ATOM     15  C   UNL     1      -1.579   0.409   0.000  1.00  0.00     0.001 C 
BRANCH  15  16
ATOM     16  C   UNL     1      -2.891   1.136   0.000  1.00  0.00     0.008 C 
BRANCH  16  17
ATOM     17  C   UNL     1      -4.176   0.363   0.000  1.00  0.00    -0.022 A 
ATOM     18  C   UNL     1      -4.149  -1.137   0.000  1.00  0.00     0.012 A 
ATOM     19  C   UNL     1      -5.489   1.089   0.000  1.00  0.00     0.058 A 
ATOM     20  C   UNL     1      -5.435  -1.910   0.000  1.00  0.00     0.051 A 
ATOM     21  C   UNL     1      -6.774   0.316   0.000  1.00  0.00     0.166 A 
ATOM     22  C   UNL     1      -6.747  -1.184   0.000  1.00  0.00     0.165 A 
ATOM     23  O   UNL     1      -8.209   0.754   0.000  1.00  0.00    -0.454 OA
ATOM     24  O   UNL     1      -8.165  -1.673   0.000  1.00  0.00    -0.454 OA
ATOM     25  C   UNL     1      -9.069  -0.475   0.000  1.00  0.00     0.468 C 
ENDBRANCH  16  17
ENDBRANCH  15  16
ENDBRANCH  14  15
ENDBRANCH  13  14
ENDBRANCH   2  13
TORSDOF 9
