REMARK SMILES C=CCc1c(O)c(OC)cc2c(C)c(-c3ccc4c(c3)OCO4)oc12
REMARK SMILES IDX 4 1 5 2 7 3 10 4 11 5 25 6 24 7 14 8 12 9 13 10 3 11 2 12
REMARK SMILES IDX 1 13 6 14 8 16 9 17 15 18 16 19 20 20 17 21 19 22 18 23
REMARK SMILES IDX 21 24 23 25 22 26
REMARK H PARENT 6 15
ROOT
ATOM      1  C   UNL     1       2.772  -1.049   0.000  1.00  0.00     0.045 A 
ATOM      2  C   UNL     1       4.067  -0.292   0.000  1.00  0.00     0.165 A 
ATOM      3  C   UNL     1       4.059   1.208   0.000  1.00  0.00     0.161 A 
ATOM      4  C   UNL     1       2.756   1.951   0.000  1.00  0.00     0.062 A 
ATOM      5  C   UNL     1       1.461   1.194   0.000  1.00  0.00     0.028 A 
ATOM      6  C   UNL     1       1.469  -0.306   0.000  1.00  0.00     0.142 A 
ATOM      7  O   UNL     1       0.045  -0.778   0.000  1.00  0.00    -0.455 OA
ATOM      8  C   UNL     1      -0.843   0.431   0.000  1.00  0.00     0.138 A 
ATOM      9  C   UNL     1       0.032   1.649   0.000  1.00  0.00     0.003 A 
ATOM     10  C   UNL     1      -0.440   3.073   0.000  1.00  0.00     0.049 C 
ENDROOT
BRANCH   1  11
ATOM     11  C   UNL     1       2.781  -2.549   0.000  1.00  0.00     0.070 C 
BRANCH  11  12
ATOM     12  C   UNL     1       4.084  -3.292   0.000  1.00  0.00    -0.030 C 
ATOM     13  C   UNL     1       4.092  -4.792   0.000  1.00  0.00     0.004 C 
ENDBRANCH  11  12
ENDBRANCH   1  11
BRANCH   2  14
ATOM     14  O   UNL     1       5.371  -1.035   0.000  1.00  0.00    -0.504 OA
ATOM     15  H   UNL     1       0.000   0.000   0.000  1.00  0.00     0.293 HD
ENDBRANCH   2  14
BRANCH   3  16
ATOM     16  O   UNL     1       5.354   1.965   0.000  1.00  0.00    -0.493 OA
ATOM     17  C   UNL     1       5.346   3.465   0.000  1.00  0.00     0.278 C 
ENDBRANCH   3  16
BRANCH   8  18
ATOM     18  C   UNL     1      -2.343   0.422   0.000  1.00  0.00     0.021 A 
ATOM     19  C   UNL     1      -3.100   1.717   0.000  1.00  0.00     0.016 A 
ATOM     20  C   UNL     1      -3.086  -0.881   0.000  1.00  0.00     0.062 A 
ATOM     21  C   UNL     1      -4.600   1.709   0.000  1.00  0.00     0.051 A 
ATOM     22  C   UNL     1      -4.586  -0.889   0.000  1.00  0.00     0.166 A 
ATOM     23  C   UNL     1      -5.343   0.406   0.000  1.00  0.00     0.165 A 
ATOM     24  O   UNL     1      -5.583  -2.009   0.000  1.00  0.00    -0.454 OA
ATOM     25  O   UNL     1      -6.809   0.086   0.000  1.00  0.00    -0.454 OA
ATOM     26  C   UNL     1      -6.957  -1.407   0.000  1.00  0.00     0.468 C 
ENDBRANCH   8  18
TORSDOF 5
