REMARK SMILES COC(=O)C=C(C)CCC=C(C)CCC=C(C)CCC=C(C)C(=O)OC
REMARK SMILES IDX 13 1 11 2 12 3 10 4 9 5 8 6 6 7 7 8 5 9 3 10 4 11 2 12 1 13
REMARK SMILES IDX 14 14 15 15 16 16 17 17 18 18 19 19 20 20 21 21 22 22 23 23
REMARK SMILES IDX 24 24 25 25 26 26
REMARK H PARENT
ROOT
ATOM      1  C   UNL     1       0.981  -0.000   0.000  1.00  0.00     0.034 C 
ENDROOT
BRANCH   1   2
ATOM      2  C   UNL     1       1.731   1.299   0.000  1.00  0.00    -0.077 C 
ATOM      3  C   UNL     1       0.981   2.598   0.000  1.00  0.00     0.039 C 
BRANCH   2   4
ATOM      4  C   UNL     1       3.231   1.299   0.000  1.00  0.00    -0.028 C 
BRANCH   4   5
ATOM      5  C   UNL     1       3.981   0.000   0.000  1.00  0.00     0.032 C 
BRANCH   5   6
ATOM      6  C   UNL     1       5.481   0.000   0.000  1.00  0.00     0.035 C 
BRANCH   6   7
ATOM      7  C   UNL     1       6.231  -1.299   0.000  1.00  0.00    -0.066 C 
ATOM      8  C   UNL     1       5.481  -2.598   0.000  1.00  0.00     0.040 C 
BRANCH   7   9
ATOM      9  C   UNL     1       7.731  -1.299   0.000  1.00  0.00     0.092 C 
BRANCH   9  10
ATOM     10  C   UNL     1       8.481  -0.000   0.000  1.00  0.00     0.330 C 
ATOM     11  O   UNL     1       7.731   1.299   0.000  1.00  0.00    -0.247 OA
BRANCH  10  12
ATOM     12  O   UNL     1       9.981  -0.000   0.000  1.00  0.00    -0.466 OA
ATOM     13  C   UNL     1      10.731   1.299   0.000  1.00  0.00     0.282 C 
ENDBRANCH  10  12
ENDBRANCH   9  10
ENDBRANCH   7   9
ENDBRANCH   6   7
ENDBRANCH   5   6
ENDBRANCH   4   5
ENDBRANCH   2   4
ENDBRANCH   1   2
BRANCH   1  14
ATOM     14  C   UNL     1      -0.519  -0.000   0.000  1.00  0.00     0.032 C 
BRANCH  14  15
ATOM     15  C   UNL     1      -1.269  -1.299   0.000  1.00  0.00    -0.028 C 
BRANCH  15  16
ATOM     16  C   UNL     1      -2.769  -1.299   0.000  1.00  0.00    -0.077 C 
ATOM     17  C   UNL     1      -3.519  -2.598   0.000  1.00  0.00     0.039 C 
BRANCH  16  18
ATOM     18  C   UNL     1      -3.519  -0.000   0.000  1.00  0.00     0.034 C 
BRANCH  18  19
ATOM     19  C   UNL     1      -5.019  -0.000   0.000  1.00  0.00     0.032 C 
BRANCH  19  20
ATOM     20  C   UNL     1      -5.769   1.299   0.000  1.00  0.00    -0.016 C 
BRANCH  20  21
ATOM     21  C   UNL     1      -7.269   1.299   0.000  1.00  0.00     0.030 C 
ATOM     22  C   UNL     1      -8.019   2.598   0.000  1.00  0.00     0.052 C 
BRANCH  21  23
ATOM     23  C   UNL     1      -8.019  -0.000   0.000  1.00  0.00     0.333 C 
ATOM     24  O   UNL     1      -7.269  -1.299   0.000  1.00  0.00    -0.247 OA
BRANCH  23  25
ATOM     25  O   UNL     1      -9.519   0.000   0.000  1.00  0.00    -0.466 OA
ATOM     26  C   UNL     1     -10.269  -1.299   0.000  1.00  0.00     0.282 C 
ENDBRANCH  23  25
ENDBRANCH  21  23
ENDBRANCH  20  21
ENDBRANCH  19  20
ENDBRANCH  18  19
ENDBRANCH  16  18
ENDBRANCH  15  16
ENDBRANCH  14  15
ENDBRANCH   1  14
TORSDOF 17
