REMARK SMILES COC(=O)C=C[C@]12C(=O)OC(C)(C)C1CC(=O)[C@]1(C)C2[C@H](O)C[C@@]2(C)[C@H](c3ccoc3)OC(=O)[C@H]3O[C@]321
REMARK SMILES IDX 5 1 3 2 4 3 2 4 1 5 6 6 7 7 8 8 14 9 20 10 10 11 11 12 15 13
REMARK SMILES IDX 18 14 21 15 16 16 37 17 23 18 36 19 24 20 35 21 26 22 33 23
REMARK SMILES IDX 32 24 9 25 12 26 13 27 19 28 17 29 25 30 34 31 22 32 27 34
REMARK SMILES IDX 31 35 28 36 30 37 29 38
REMARK H PARENT 22 33
ROOT
ATOM      1  C   UNL     1      -2.696   2.127   0.000  1.00  0.00     0.090 C 
ENDROOT
BRANCH   1   2
ATOM      2  C   UNL     1      -2.120   3.512   0.000  1.00  0.00     0.330 C 
ATOM      3  O   UNL     1      -0.633   3.706   0.000  1.00  0.00    -0.247 OA
BRANCH   2   4
ATOM      4  O   UNL     1      -3.032   4.703   0.000  1.00  0.00    -0.466 OA
ATOM      5  C   UNL     1      -2.456   6.088   0.000  1.00  0.00     0.282 C 
ENDBRANCH   2   4
ENDBRANCH   1   2
BRANCH   1   6
ATOM      6  C   UNL     1      -1.785   0.936   0.000  1.00  0.00    -0.000 C 
BRANCH   6   7
ATOM      7  C   UNL     1      -2.361  -0.449   0.000  1.00  0.00     0.100 C 
ATOM      8  C   UNL     1      -3.392   0.640   0.000  1.00  0.00     0.317 C 
ATOM      9  C   UNL     1      -3.079  -1.766   0.000  1.00  0.00     0.062 C 
ATOM     10  C   UNL     1      -0.861  -0.412   0.000  1.00  0.00     0.056 C 
ATOM     11  O   UNL     1      -4.747  -0.004   0.000  1.00  0.00    -0.459 OA
ATOM     12  C   UNL     1      -4.553  -1.491   0.000  1.00  0.00     0.111 C 
ATOM     13  C   UNL     1      -2.297  -3.047   0.000  1.00  0.00     0.085 C 
ATOM     14  C   UNL     1      -0.079  -1.692   0.000  1.00  0.00     0.066 C 
ATOM     15  C   UNL     1      -0.144   0.905   0.000  1.00  0.00     0.121 C 
ATOM     16  C   UNL     1      -0.797  -3.009   0.000  1.00  0.00     0.142 C 
ATOM     17  C   UNL     1       1.420  -1.655   0.000  1.00  0.00     0.128 C 
ATOM     18  C   UNL     1       1.356   0.942   0.000  1.00  0.00     0.046 C 
ATOM     19  O   UNL     1       0.703  -2.972   0.000  1.00  0.00    -0.352 OA
ATOM     20  C   UNL     1       2.138  -0.338   0.000  1.00  0.00     0.045 C 
ATOM     21  C   UNL     1       2.202  -2.935   0.000  1.00  0.00     0.262 C 
ATOM     22  C   UNL     1       3.637  -0.301   0.000  1.00  0.00     0.219 C 
ATOM     23  C   UNL     1       3.702  -2.898   0.000  1.00  0.00     0.339 C 
ATOM     24  O   UNL     1       4.419  -1.581   0.000  1.00  0.00    -0.455 OA
ATOM     25  O   UNL     1      -3.464   1.853   0.000  1.00  0.00    -0.251 OA
ATOM     26  C   UNL     1      -6.053  -1.528   0.000  1.00  0.00     0.057 C 
ATOM     27  C   UNL     1      -4.673  -2.986   0.000  1.00  0.00     0.057 C 
ATOM     28  C   UNL     1      -1.579  -1.729   0.000  1.00  0.00     0.023 C 
ATOM     29  O   UNL     1      -0.015  -4.290   0.000  1.00  0.00    -0.299 OA
ATOM     30  C   UNL     1       2.855   0.979   0.000  1.00  0.00     0.019 C 
ATOM     31  O   UNL     1       4.484  -4.178   0.000  1.00  0.00    -0.249 OA
BRANCH  15  32
ATOM     32  O   UNL     1      -0.926   2.185   0.000  1.00  0.00    -0.393 OA
ATOM     33  H   UNL     1       0.000   0.000   0.000  1.00  0.00     0.210 HD
ENDBRANCH  15  32
BRANCH  22  34
ATOM     34  C   UNL     1       4.355   1.016   0.000  1.00  0.00     0.031 A 
ATOM     35  C   UNL     1       3.711   2.371   0.000  1.00  0.00     0.202 A 
ATOM     36  C   UNL     1       5.842   1.210   0.000  1.00  0.00     0.049 A 
ATOM     37  O   UNL     1       4.801   3.402   0.000  1.00  0.00    -0.472 OA
ATOM     38  C   UNL     1       6.118   2.685   0.000  1.00  0.00     0.195 A 
ENDBRANCH  22  34
ENDBRANCH   6   7
ENDBRANCH   1   6
TORSDOF 6
