REMARK SMILES C=C1CCCC(CO)CC[C@H](C(C)(C)O)CC1OC(C)=O
REMARK SMILES IDX 11 1 16 2 17 3 2 4 1 5 3 6 18 8 19 9 20 10 21 11 10 12 9 13
REMARK SMILES IDX 6 14 5 15 4 16 7 18 8 19 12 21 13 22 14 23 15 24
REMARK H PARENT 8 20 15 25
REMARK Flexibility Score:   24.900
ROOT
ATOM      1  C   UNL     1       0.121   1.331   0.000  1.00  0.00     0.024 C 
ENDROOT
BRANCH   1   2
ATOM      2  C   UNL     1       1.144   0.233   0.000  1.00  0.00     0.056 C 
BRANCH   2   3
ATOM      3  C   UNL     1       1.325  -1.256   0.000  1.00  0.00     0.202 C 
BRANCH   3   4
ATOM      4  C   UNL     1       0.597  -2.567   0.000  1.00  0.00    -0.037 C 
ATOM      5  C   UNL     1       1.619  -3.665   0.000  1.00  0.00     0.012 C 
BRANCH   4   6
ATOM      6  C   UNL     1      -0.763  -3.200   0.000  1.00  0.00     0.034 CG0
ATOM      7  G   UNL     1      -2.235  -2.913   0.000  1.00  0.00     0.000 G0
ENDBRANCH   4   6
ENDBRANCH   3   4
BRANCH   3   8
ATOM      8  O   UNL     1       2.798  -1.543   0.000  1.00  0.00    -0.458 OA
BRANCH   8   9
ATOM      9  C   UNL     1       3.783  -0.412   0.000  1.00  0.00     0.303 C 
ATOM     10  C   UNL     1       5.255  -0.699   0.000  1.00  0.00     0.139 C 
ATOM     11  O   UNL     1       3.295   1.007   0.000  1.00  0.00    -0.253 OA
ENDBRANCH   8   9
ENDBRANCH   3   8
ENDBRANCH   2   3
ENDBRANCH   1   2
BRANCH   1  12
ATOM     12  C   UNL     1      -1.351   1.618   0.000  1.00  0.00     0.007 C 
BRANCH  12  13
ATOM     13  C   UNL     1      -2.711   0.985   0.000  1.00  0.00     0.006 C 
BRANCH  13  14
ATOM     14  C   UNL     1      -3.439  -0.326   0.000  1.00  0.00     0.015 C 
BRANCH  14  15
ATOM     15  C   UNL     1      -3.257  -1.815   0.000  1.00  0.00     0.006 C 
BRANCH  15  16
ATOM     16  C   UNL     1      -2.235  -2.913   0.000  1.00  0.00     0.005 CG0
ATOM     17  G   UNL     1      -0.763  -3.200   0.000  1.00  0.00     0.000 G0
ENDBRANCH  15  16
ENDBRANCH  14  15
BRANCH  14  18
ATOM     18  C   UNL     1      -4.911  -0.039   0.000  1.00  0.00     0.159 C 
BRANCH  18  19
ATOM     19  O   UNL     1      -5.398   1.380   0.000  1.00  0.00    -0.396 OA
ATOM     20  H   UNL     1       0.000   0.000   0.000  1.00  0.00     0.210 HD
ENDBRANCH  18  19
ENDBRANCH  14  18
ENDBRANCH  13  14
ENDBRANCH  12  13
ENDBRANCH   1  12
BRANCH   1  21
ATOM     21  C   UNL     1       0.850   2.642   0.000  1.00  0.00     0.062 C 
ATOM     22  C   UNL     1      -0.462   3.370   0.000  1.00  0.00     0.042 C 
ATOM     23  C   UNL     1       2.161   1.914   0.000  1.00  0.00     0.042 C 
BRANCH  21  24
ATOM     24  O   UNL     1       1.578   3.954   0.000  1.00  0.00    -0.390 OA
ATOM     25  H   UNL     1       0.000   0.000   0.000  1.00  0.00     0.211 HD
ENDBRANCH  21  24
ENDBRANCH   1  21
TORSDOF 6
