REMARK SMILES CC(C)C[C@@H]1NC(=O)[C@@H]2C[C@@H](O)CN2C1=O
REMARK SMILES IDX 5 1 6 2 7 3 8 4 9 5 10 6 11 7 13 8 14 9 15 10 16 11 4 13
REMARK SMILES IDX 2 14 1 15 3 16 12 17
REMARK H PARENT 6 12 12 18
ROOT
ATOM      1  C   UNL     1       1.270   0.411   0.000  1.00  0.00     0.171 C 
ATOM      2  N   UNL     1       1.087  -1.078   0.000  1.00  0.00    -0.342 N 
ATOM      3  C   UNL     1      -0.293  -1.664   0.000  1.00  0.00     0.243 C 
ATOM      4  O   UNL     1      -0.475  -3.153   0.000  1.00  0.00    -0.273 OA
ATOM      5  C   UNL     1      -1.492  -0.762   0.000  1.00  0.00     0.177 C 
ATOM      6  C   UNL     1      -2.964  -1.049   0.000  1.00  0.00     0.069 C 
ATOM      7  C   UNL     1      -3.692   0.263   0.000  1.00  0.00     0.136 C 
ATOM      8  C   UNL     1      -2.669   1.360   0.000  1.00  0.00     0.152 C 
ATOM      9  N   UNL     1      -1.309   0.727   0.000  1.00  0.00    -0.326 N 
ATOM     10  C   UNL     1       0.071   1.314   0.000  1.00  0.00     0.245 C 
ATOM     11  O   UNL     1       0.253   2.803   0.000  1.00  0.00    -0.272 OA
ATOM     12  H   UNL     1       0.000   0.000   0.000  1.00  0.00     0.164 HD
ENDROOT
BRANCH   1  13
ATOM     13  C   UNL     1       2.650   0.998   0.000  1.00  0.00     0.038 C 
BRANCH  13  14
ATOM     14  C   UNL     1       3.848   0.096   0.000  1.00  0.00    -0.015 C 
ATOM     15  C   UNL     1       5.229   0.682   0.000  1.00  0.00     0.007 C 
ATOM     16  C   UNL     1       3.666  -1.393   0.000  1.00  0.00     0.007 C 
ENDBRANCH  13  14
ENDBRANCH   1  13
BRANCH   7  17
ATOM     17  O   UNL     1      -5.181   0.445   0.000  1.00  0.00    -0.391 OA
ATOM     18  H   UNL     1       0.000   0.000   0.000  1.00  0.00     0.211 HD
ENDBRANCH   7  17
TORSDOF 3
