REMARK SMILES COc1ccc2c(c1O)-c1c(OC)c(OC)cc3c1[C@H](C2)N(C)CC3
REMARK SMILES IDX 3 1 4 2 5 3 6 4 21 5 20 6 19 7 18 8 17 9 14 10 11 11 10 12
REMARK SMILES IDX 7 13 8 14 25 15 24 16 22 17 23 18 2 19 1 20 9 21 12 23 13 24
REMARK SMILES IDX 15 25 16 26
REMARK H PARENT 9 22
ROOT
ATOM      1  C   UNL     1      -3.403   1.094   0.000  1.00  0.00     0.161 A 
ATOM      2  C   UNL     1      -3.165   2.575   0.000  1.00  0.00     0.051 A 
ATOM      3  C   UNL     1      -1.763   3.109   0.000  1.00  0.00     0.008 A 
ATOM      4  C   UNL     1      -0.600   2.163   0.000  1.00  0.00    -0.034 A 
ATOM      5  C   UNL     1       0.802   2.697   0.000  1.00  0.00     0.060 C 
ATOM      6  C   UNL     1       1.965   1.750   0.000  1.00  0.00     0.092 C 
ATOM      7  C   UNL     1       1.727   0.269   0.000  1.00  0.00    -0.015 A 
ATOM      8  C   UNL     1       2.891  -0.677   0.000  1.00  0.00    -0.037 A 
ATOM      9  C   UNL     1       2.653  -2.158   0.000  1.00  0.00     0.054 A 
ATOM     10  C   UNL     1       1.251  -2.693   0.000  1.00  0.00     0.161 A 
ATOM     11  C   UNL     1       0.088  -1.746   0.000  1.00  0.00     0.169 A 
ATOM     12  C   UNL     1       0.326  -0.265   0.000  1.00  0.00     0.037 A 
ATOM     13  C   UNL     1      -0.838   0.682   0.000  1.00  0.00     0.035 A 
ATOM     14  C   UNL     1      -2.239   0.147   0.000  1.00  0.00     0.166 A 
ATOM     15  C   UNL     1       4.293  -0.143   0.000  1.00  0.00     0.051 C 
ATOM     16  C   UNL     1       4.530   1.338   0.000  1.00  0.00     0.089 C 
ATOM     17  N   UNL     1       3.367   2.285   0.000  1.00  0.00    -0.299 NA
ATOM     18  C   UNL     1       3.605   3.766   0.000  1.00  0.00     0.106 C 
ENDROOT
BRANCH   1  19
ATOM     19  O   UNL     1      -4.804   0.559   0.000  1.00  0.00    -0.493 OA
ATOM     20  C   UNL     1      -5.968   1.506   0.000  1.00  0.00     0.278 C 
ENDBRANCH   1  19
BRANCH  14  21
ATOM     21  O   UNL     1      -2.477  -1.334   0.000  1.00  0.00    -0.504 OA
ATOM     22  H   UNL     1       0.000   0.000   0.000  1.00  0.00     0.293 HD
ENDBRANCH  14  21
BRANCH  11  23
ATOM     23  O   UNL     1      -1.314  -2.280   0.000  1.00  0.00    -0.492 OA
ATOM     24  C   UNL     1      -1.552  -3.761   0.000  1.00  0.00     0.278 C 
ENDBRANCH  11  23
BRANCH  10  25
ATOM     25  O   UNL     1       1.013  -4.174   0.000  1.00  0.00    -0.493 OA
ATOM     26  C   UNL     1      -0.388  -4.708   0.000  1.00  0.00     0.278 C 
ENDBRANCH  10  25
TORSDOF 4
