REMARK SMILES COc1ccc(-c2cc(=O)c3c(OC)c(OC)c(OC)c(OC)c3o2)cc1OC
REMARK SMILES IDX 7 1 8 2 9 3 10 4 11 5 12 6 15 7 18 8 21 9 24 10 25 11 6 12
REMARK SMILES IDX 3 13 4 14 27 15 5 16 26 17 2 18 1 19 28 20 29 21 22 22 23 23
REMARK SMILES IDX 13 24 14 25 19 26 20 27 16 28 17 29
REMARK H PARENT
ROOT
ATOM      1  C   UNL     1      -1.210  -0.329   0.000  1.00  0.00     0.138 A 
ATOM      2  C   UNL     1      -0.818  -1.776   0.000  1.00  0.00     0.100 A 
ATOM      3  C   UNL     1       0.633  -2.160   0.000  1.00  0.00     0.197 A 
ATOM      4  O   UNL     1       1.026  -3.607   0.000  1.00  0.00    -0.289 OA
ATOM      5  C   UNL     1       1.690  -1.096   0.000  1.00  0.00     0.115 A 
ATOM      6  C   UNL     1       3.140  -1.479   0.000  1.00  0.00     0.179 A 
ATOM      7  C   UNL     1       4.197  -0.415   0.000  1.00  0.00     0.208 A 
ATOM      8  C   UNL     1       3.804   1.033   0.000  1.00  0.00     0.211 A 
ATOM      9  C   UNL     1       2.354   1.416   0.000  1.00  0.00     0.209 A 
ATOM     10  C   UNL     1       1.297   0.352   0.000  1.00  0.00     0.188 A 
ATOM     11  O   UNL     1      -0.153   0.736   0.000  1.00  0.00    -0.452 OA
ENDROOT
BRANCH   1  12
ATOM     12  C   UNL     1      -2.661   0.055   0.000  1.00  0.00     0.021 A 
ATOM     13  C   UNL     1      -5.561   0.822   0.000  1.00  0.00     0.160 A 
ATOM     14  C   UNL     1      -4.504   1.886   0.000  1.00  0.00     0.051 A 
ATOM     15  C   UNL     1      -5.168  -0.626   0.000  1.00  0.00     0.161 A 
ATOM     16  C   UNL     1      -3.054   1.503   0.000  1.00  0.00     0.016 A 
ATOM     17  C   UNL     1      -3.718  -1.009   0.000  1.00  0.00     0.062 A 
BRANCH  13  18
ATOM     18  O   UNL     1      -7.011   1.206   0.000  1.00  0.00    -0.493 OA
ATOM     19  C   UNL     1      -7.404   2.653   0.000  1.00  0.00     0.278 C 
ENDBRANCH  13  18
BRANCH  15  20
ATOM     20  O   UNL     1      -6.225  -1.690   0.000  1.00  0.00    -0.493 OA
ATOM     21  C   UNL     1      -5.832  -3.137   0.000  1.00  0.00     0.278 C 
ENDBRANCH  15  20
ENDBRANCH   1  12
BRANCH   9  22
ATOM     22  O   UNL     1       1.961   2.864   0.000  1.00  0.00    -0.490 OA
ATOM     23  C   UNL     1       3.018   3.928   0.000  1.00  0.00     0.278 C 
ENDBRANCH   9  22
BRANCH   6  24
ATOM     24  O   UNL     1       3.533  -2.927   0.000  1.00  0.00    -0.492 OA
ATOM     25  C   UNL     1       4.983  -3.310   0.000  1.00  0.00     0.278 C 
ENDBRANCH   6  24
BRANCH   8  26
ATOM     26  O   UNL     1       4.861   2.097   0.000  1.00  0.00    -0.490 OA
ATOM     27  C   UNL     1       4.468   3.544   0.000  1.00  0.00     0.279 C 
ENDBRANCH   8  26
BRANCH   7  28
ATOM     28  O   UNL     1       5.647  -0.798   0.000  1.00  0.00    -0.490 OA
ATOM     29  C   UNL     1       6.705   0.266   0.000  1.00  0.00     0.278 C 
ENDBRANCH   7  28
TORSDOF 7
