REMARK SMILES C[C@@H](O)Cc1cc(=O)c2c(O)cccc2o1
REMARK SMILES IDX 4 1 2 2 1 3 3 4 5 6 6 7 16 8 7 9 15 10 9 11 14 12 10 13
REMARK SMILES IDX 13 14 12 15 8 16 11 17
REMARK H PARENT 3 5 11 18
ROOT
ATOM      1  C   UNL     1      -2.986  -0.945   0.000  1.00  0.00     0.107 C 
ENDROOT
BRANCH   1   2
ATOM      2  C   UNL     1      -3.922   0.227   0.000  1.00  0.00     0.118 C 
ATOM      3  C   UNL     1      -5.405   0.003   0.000  1.00  0.00     0.039 C 
BRANCH   2   4
ATOM      4  O   UNL     1      -3.375   1.624   0.000  1.00  0.00    -0.393 OA
ATOM      5  H   UNL     1       0.000   0.000   0.000  1.00  0.00     0.210 HD
ENDBRANCH   2   4
ENDBRANCH   1   2
BRANCH   1   6
ATOM      6  C   UNL     1      -1.503  -0.720   0.000  1.00  0.00     0.111 A 
ATOM      7  C   UNL     1      -0.567  -1.892   0.000  1.00  0.00     0.095 A 
ATOM      8  O   UNL     1      -0.956   0.676   0.000  1.00  0.00    -0.461 OA
ATOM      9  C   UNL     1       0.916  -1.668   0.000  1.00  0.00     0.196 A 
ATOM     10  C   UNL     1       0.527   0.901   0.000  1.00  0.00     0.141 A 
ATOM     11  C   UNL     1       1.463  -0.271   0.000  1.00  0.00     0.106 A 
ATOM     12  C   UNL     1       1.074   2.298   0.000  1.00  0.00     0.048 A 
ATOM     13  C   UNL     1       2.946  -0.046   0.000  1.00  0.00     0.130 A 
ATOM     14  C   UNL     1       2.558   2.522   0.000  1.00  0.00     0.008 A 
ATOM     15  C   UNL     1       3.494   1.350   0.000  1.00  0.00     0.047 A 
ATOM     16  O   UNL     1       1.852  -2.840   0.000  1.00  0.00    -0.289 OA
BRANCH  13  17
ATOM     17  O   UNL     1       3.882  -1.219   0.000  1.00  0.00    -0.507 OA
ATOM     18  H   UNL     1       0.000   0.000   0.000  1.00  0.00     0.293 HD
ENDBRANCH  13  17
ENDBRANCH   1   6
TORSDOF 4
