REMARK SMILES C=C[C@]1(C)CC2=C(OC(C)=O)C(=C)[C@@]34O[C@]3(CCCC4(C)C)[C@]2(C)[C@@H](OC(C)=O)C1
REMARK SMILES IDX 3 1 4 2 5 3 6 4 7 5 12 6 13 7 14 8 15 9 16 10 17 11 18 12
REMARK SMILES IDX 19 13 20 14 21 15 22 16 23 17 24 18 25 19 30 20 2 21 1 22
REMARK SMILES IDX 26 23 27 24 28 25 29 26 8 27 9 28 10 29 11 30
REMARK H PARENT
ROOT
ATOM      1  C   UNL     1      -2.198   2.592   0.000  1.00  0.00    -0.007 C 
ATOM      2  C   UNL     1      -3.598   3.130   0.000  1.00  0.00     0.016 C 
ATOM      3  C   UNL     1      -0.698   2.565   0.000  1.00  0.00     0.046 C 
ATOM      4  C   UNL     1       0.029   1.253   0.000  1.00  0.00    -0.013 C 
ATOM      5  C   UNL     1       1.528   1.226   0.000  1.00  0.00     0.136 C 
ATOM      6  C   UNL     1       2.255  -0.086   0.000  1.00  0.00     0.023 C 
ATOM      7  C   UNL     1       3.755  -0.113   0.000  1.00  0.00     0.020 C 
ATOM      8  C   UNL     1       1.482  -1.372   0.000  1.00  0.00     0.132 C 
ATOM      9  O   UNL     1       0.709  -2.657   0.000  1.00  0.00    -0.356 OA
ATOM     10  C   UNL     1      -0.018  -1.345   0.000  1.00  0.00     0.116 C 
ATOM     11  C   UNL     1      -0.791  -2.630   0.000  1.00  0.00     0.040 C 
ATOM     12  C   UNL     1      -0.065  -3.943   0.000  1.00  0.00     0.004 C 
ATOM     13  C   UNL     1       1.435  -3.970   0.000  1.00  0.00     0.010 C 
ATOM     14  C   UNL     1       2.208  -2.684   0.000  1.00  0.00     0.001 C 
ATOM     15  C   UNL     1       3.374  -1.741   0.000  1.00  0.00     0.014 C 
ATOM     16  C   UNL     1       3.340  -3.669   0.000  1.00  0.00     0.014 C 
ATOM     17  C   UNL     1      -0.745  -0.033   0.000  1.00  0.00     0.062 C 
ATOM     18  C   UNL     1      -1.518  -1.318   0.000  1.00  0.00     0.023 C 
ATOM     19  C   UNL     1      -2.244  -0.006   0.000  1.00  0.00     0.190 C 
ATOM     20  C   UNL     1      -2.971   1.306   0.000  1.00  0.00     0.057 C 
ENDROOT
BRANCH   1  21
ATOM     21  C   UNL     1      -1.911   4.064   0.000  1.00  0.00    -0.028 C 
ATOM     22  C   UNL     1      -0.492   4.552   0.000  1.00  0.00     0.004 C 
ENDBRANCH   1  21
BRANCH  19  23
ATOM     23  O   UNL     1      -3.018  -1.291   0.000  1.00  0.00    -0.461 OA
BRANCH  23  24
ATOM     24  C   UNL     1      -4.517  -1.264   0.000  1.00  0.00     0.302 C 
ATOM     25  C   UNL     1      -5.290  -2.550   0.000  1.00  0.00     0.139 C 
ATOM     26  O   UNL     1      -5.244   0.048   0.000  1.00  0.00    -0.253 OA
ENDBRANCH  23  24
ENDBRANCH  19  23
BRANCH   5  27
ATOM     27  O   UNL     1       2.301   2.511   0.000  1.00  0.00    -0.426 OA
BRANCH  27  28
ATOM     28  C   UNL     1       3.801   2.484   0.000  1.00  0.00     0.308 C 
ATOM     29  C   UNL     1       4.574   3.770   0.000  1.00  0.00     0.139 C 
ATOM     30  O   UNL     1       4.528   1.172   0.000  1.00  0.00    -0.252 OA
ENDBRANCH  27  28
ENDBRANCH   5  27
TORSDOF 5
