REMARK SMILES CCOc1ccc([C@H]2CC(=O)c3c(O)c(C)c(OCC)c(C)c3O2)cc1OC
REMARK SMILES IDX 8 1 9 2 10 3 11 4 12 5 13 6 15 7 16 8 17 9 21 10 22 11 23 12
REMARK SMILES IDX 24 13 7 14 4 15 5 16 26 17 6 18 25 19 3 20 2 21 1 22 27 23
REMARK SMILES IDX 28 24 14 25 18 27 19 28 20 29
REMARK H PARENT 14 26
ROOT
ATOM      1  C   UNL     1      -0.692  -0.449   0.000  1.00  0.00     0.211 C 
ATOM      2  C   UNL     1      -0.278  -1.891   0.000  1.00  0.00     0.131 C 
ATOM      3  C   UNL     1       1.178  -2.253   0.000  1.00  0.00     0.174 C 
ATOM      4  O   UNL     1       1.592  -3.695   0.000  1.00  0.00    -0.294 OA
ATOM      5  C   UNL     1       2.220  -1.174   0.000  1.00  0.00     0.102 A 
ATOM      6  C   UNL     1       3.675  -1.536   0.000  1.00  0.00     0.136 A 
ATOM      7  C   UNL     1       4.717  -0.457   0.000  1.00  0.00     0.034 A 
ATOM      8  C   UNL     1       6.172  -0.819   0.000  1.00  0.00     0.052 C 
ATOM      9  C   UNL     1       4.303   0.985   0.000  1.00  0.00     0.132 A 
ATOM     10  C   UNL     1       2.847   1.347   0.000  1.00  0.00     0.034 A 
ATOM     11  C   UNL     1       2.433   2.789   0.000  1.00  0.00     0.052 C 
ATOM     12  C   UNL     1       1.806   0.268   0.000  1.00  0.00     0.141 A 
ATOM     13  O   UNL     1       0.350   0.630   0.000  1.00  0.00    -0.484 OA
ENDROOT
BRANCH   1  14
ATOM     14  C   UNL     1      -2.147  -0.087   0.000  1.00  0.00    -0.003 A 
ATOM     15  C   UNL     1      -5.058   0.637   0.000  1.00  0.00     0.161 A 
ATOM     16  C   UNL     1      -4.017   1.717   0.000  1.00  0.00     0.051 A 
ATOM     17  C   UNL     1      -4.644  -0.804   0.000  1.00  0.00     0.161 A 
ATOM     18  C   UNL     1      -2.561   1.355   0.000  1.00  0.00     0.011 A 
ATOM     19  C   UNL     1      -3.189  -1.167   0.000  1.00  0.00     0.058 A 
BRANCH  15  20
ATOM     20  O   UNL     1      -6.514   1.000   0.000  1.00  0.00    -0.490 OA
BRANCH  20  21
ATOM     21  C   UNL     1      -6.928   2.441   0.000  1.00  0.00     0.226 C 
ATOM     22  C   UNL     1      -8.383   2.804   0.000  1.00  0.00     0.049 C 
ENDBRANCH  20  21
ENDBRANCH  15  20
BRANCH  17  23
ATOM     23  O   UNL     1      -5.686  -1.884   0.000  1.00  0.00    -0.493 OA
ATOM     24  C   UNL     1      -5.272  -3.325   0.000  1.00  0.00     0.278 C 
ENDBRANCH  17  23
ENDBRANCH   1  14
BRANCH   6  25
ATOM     25  O   UNL     1       4.089  -2.978   0.000  1.00  0.00    -0.507 OA
ATOM     26  H   UNL     1       0.000   0.000   0.000  1.00  0.00     0.293 HD
ENDBRANCH   6  25
BRANCH   9  27
ATOM     27  O   UNL     1       5.344   2.064   0.000  1.00  0.00    -0.493 OA
BRANCH  27  28
ATOM     28  C   UNL     1       6.800   1.702   0.000  1.00  0.00     0.226 C 
ATOM     29  C   UNL     1       7.841   2.781   0.000  1.00  0.00     0.049 C 
ENDBRANCH  27  28
ENDBRANCH   9  27
TORSDOF 7
