REMARK SMILES COc1ccc(CC[C@H]2CCC[C@@H](c3ccc(OC)cc3)O2)cc1
REMARK SMILES IDX 8 1 7 2 6 3 3 4 4 5 24 6 5 7 23 8 2 9 1 10 9 11 10 12 22 13
REMARK SMILES IDX 11 14 13 15 12 16 14 17 15 18 21 19 16 20 20 21 17 22 18 23
REMARK SMILES IDX 19 24
REMARK H PARENT
ROOT
ATOM      1  C   UNL     1       1.593   1.720   0.000  1.00  0.00     0.037 C 
ENDROOT
BRANCH   1   2
ATOM      2  C   UNL     1       2.003   0.277   0.000  1.00  0.00     0.038 C 
BRANCH   2   3
ATOM      3  C   UNL     1       3.458  -0.089   0.000  1.00  0.00    -0.048 A 
ATOM      4  C   UNL     1       6.367  -0.821   0.000  1.00  0.00     0.118 A 
ATOM      5  C   UNL     1       5.323  -1.898   0.000  1.00  0.00     0.046 A 
ATOM      6  C   UNL     1       5.957   0.622   0.000  1.00  0.00     0.046 A 
ATOM      7  C   UNL     1       3.868  -1.532   0.000  1.00  0.00     0.007 A 
ATOM      8  C   UNL     1       4.502   0.988   0.000  1.00  0.00     0.007 A 
BRANCH   4   9
ATOM      9  O   UNL     1       7.822  -1.188   0.000  1.00  0.00    -0.497 OA
ATOM     10  C   UNL     1       8.232  -2.630   0.000  1.00  0.00     0.278 C 
ENDBRANCH   4   9
ENDBRANCH   2   3
ENDBRANCH   1   2
BRANCH   1  11
ATOM     11  C   UNL     1       0.138   2.086   0.000  1.00  0.00     0.119 C 
ATOM     12  C   UNL     1      -0.272   3.529   0.000  1.00  0.00     0.032 C 
ATOM     13  O   UNL     1      -0.906   1.010   0.000  1.00  0.00    -0.370 OA
ATOM     14  C   UNL     1      -1.726   3.895   0.000  1.00  0.00     0.006 C 
ATOM     15  C   UNL     1      -2.361   1.376   0.000  1.00  0.00     0.148 C 
ATOM     16  C   UNL     1      -2.771   2.818   0.000  1.00  0.00     0.037 C 
BRANCH  15  17
ATOM     17  C   UNL     1      -3.405   0.299   0.000  1.00  0.00    -0.019 A 
ATOM     18  C   UNL     1      -4.860   0.665   0.000  1.00  0.00     0.010 A 
ATOM     19  C   UNL     1      -2.995  -1.144   0.000  1.00  0.00     0.010 A 
ATOM     20  C   UNL     1      -5.904  -0.412   0.000  1.00  0.00     0.047 A 
ATOM     21  C   UNL     1      -4.039  -2.220   0.000  1.00  0.00     0.047 A 
ATOM     22  C   UNL     1      -5.494  -1.854   0.000  1.00  0.00     0.118 A 
BRANCH  22  23
ATOM     23  O   UNL     1      -6.538  -2.931   0.000  1.00  0.00    -0.497 OA
ATOM     24  C   UNL     1      -7.993  -2.565   0.000  1.00  0.00     0.278 C 
ENDBRANCH  22  23
ENDBRANCH  15  17
ENDBRANCH   1  11
TORSDOF 6
