REMARK SMILES COc1cc(C(=O)O)cc(OC)c1O
REMARK SMILES IDX 3 1 4 2 5 3 9 4 10 5 13 6 2 7 1 8 14 9 6 11 7 12 8 13 11 15
REMARK SMILES IDX 12 16
REMARK H PARENT 14 10 8 14
ROOT
ATOM      1  C   UNL     1       0.964  -1.299   0.000  1.00  0.00     0.165 A 
ATOM      2  C   UNL     1      -0.536  -1.299   0.000  1.00  0.00     0.066 A 
ATOM      3  C   UNL     1      -1.286  -0.000   0.000  1.00  0.00     0.067 A 
ATOM      4  C   UNL     1      -0.536   1.299   0.000  1.00  0.00     0.066 A 
ATOM      5  C   UNL     1       0.964   1.299   0.000  1.00  0.00     0.165 A 
ATOM      6  C   UNL     1       1.714   0.000   0.000  1.00  0.00     0.200 A 
ENDROOT
BRANCH   1   7
ATOM      7  O   UNL     1       1.714  -2.598   0.000  1.00  0.00    -0.493 OA
ATOM      8  C   UNL     1       0.964  -3.897   0.000  1.00  0.00     0.278 C 
ENDBRANCH   1   7
BRANCH   6   9
ATOM      9  O   UNL     1       3.214   0.000   0.000  1.00  0.00    -0.502 OA
ATOM     10  H   UNL     1       0.000   0.000   0.000  1.00  0.00     0.293 HD
ENDBRANCH   6   9
BRANCH   3  11
ATOM     11  C   UNL     1      -2.786  -0.000   0.000  1.00  0.00     0.335 C 
ATOM     12  O   UNL     1      -3.536  -1.299   0.000  1.00  0.00    -0.246 OA
BRANCH  11  13
ATOM     13  O   UNL     1      -3.536   1.299   0.000  1.00  0.00    -0.478 OA
ATOM     14  H   UNL     1       0.000   0.000   0.000  1.00  0.00     0.297 HD
ENDBRANCH  11  13
ENDBRANCH   3  11
BRANCH   5  15
ATOM     15  O   UNL     1       1.714   2.598   0.000  1.00  0.00    -0.493 OA
ATOM     16  C   UNL     1       0.964   3.897   0.000  1.00  0.00     0.278 C 
ENDBRANCH   5  15
TORSDOF 5
