REMARK SMILES COc1c2cc3c(cc2nc2occc12)OCO3
REMARK SMILES IDX 1 1 2 2 3 3 4 4 15 5 5 6 9 7 11 8 14 9 6 10 8 11 10 12 12 13
REMARK SMILES IDX 13 14 18 15 7 16 17 17 16 18
REMARK H PARENT
ROOT
ATOM      1  C   UNL     1       0.033  -3.376   0.000  1.00  0.00     0.278 C 
ATOM      2  O   UNL     1       1.308  -2.586   0.000  1.00  0.00    -0.495 OA
ENDROOT
BRANCH   2   3
ATOM      3  C   UNL     1       1.261  -1.086   0.000  1.00  0.00     0.141 A 
ATOM      4  C   UNL     1      -0.060  -0.377   0.000  1.00  0.00     0.047 A 
ATOM      5  C   UNL     1       2.536  -0.296   0.000  1.00  0.00     0.083 A 
ATOM      6  C   UNL     1      -1.336  -1.167   0.000  1.00  0.00     0.065 A 
ATOM      7  C   UNL     1      -0.107   1.122   0.000  1.00  0.00     0.082 A 
ATOM      8  C   UNL     1       2.490   1.203   0.000  1.00  0.00     0.230 A 
ATOM      9  C   UNL     1       3.977  -0.715   0.000  1.00  0.00     0.056 A 
ATOM     10  C   UNL     1      -2.657  -0.458   0.000  1.00  0.00     0.166 A 
ATOM     11  C   UNL     1      -1.429   1.831   0.000  1.00  0.00     0.079 A 
ATOM     12  N   UNL     1       1.168   1.912   0.000  1.00  0.00    -0.212 NA
ATOM     13  O   UNL     1       3.901   1.711   0.000  1.00  0.00    -0.446 OA
ATOM     14  C   UNL     1       4.820   0.525   0.000  1.00  0.00     0.198 A 
ATOM     15  O   UNL     1      -4.069  -0.966   0.000  1.00  0.00    -0.454 OA
ATOM     16  C   UNL     1      -2.704   1.041   0.000  1.00  0.00     0.167 A 
ATOM     17  C   UNL     1      -4.988   0.220   0.000  1.00  0.00     0.468 C 
ATOM     18  O   UNL     1      -4.144   1.460   0.000  1.00  0.00    -0.454 OA
ENDBRANCH   2   3
TORSDOF 1
