REMARK SMILES COC(=O)C=C[C@]12C(=O)OC(C)(C)C1CC(=O)[C@]1(C)C2[C@H](OC(C)=O)C[C@@]2(C)[C@H](c3ccoc3)OC(=O)[C@H]3O[C@]321
REMARK SMILES IDX 6 1 5 2 3 3 4 4 2 5 1 6 7 7 8 8 14 9 20 10 10 11 11 12 15 13
REMARK SMILES IDX 18 14 21 15 16 16 40 17 26 18 39 19 27 20 38 21 29 22 36 23
REMARK SMILES IDX 35 24 9 25 12 26 13 27 19 28 17 29 28 30 37 31 22 32 23 33
REMARK SMILES IDX 24 34 25 35 30 36 34 37 31 38 33 39 32 40
REMARK H PARENT
ROOT
ATOM      1  C   UNL     1      -1.786   0.625   0.000  1.00  0.00    -0.000 C 
ENDROOT
BRANCH   1   2
ATOM      2  C   UNL     1      -2.715   1.802   0.000  1.00  0.00     0.090 C 
BRANCH   2   3
ATOM      3  C   UNL     1      -2.159   3.196   0.000  1.00  0.00     0.330 C 
ATOM      4  O   UNL     1      -1.422   3.498   0.000  1.00  0.00    -0.247 OA
BRANCH   3   5
ATOM      5  O   UNL     1      -3.088   4.373   0.000  1.00  0.00    -0.466 OA
ATOM      6  C   UNL     1      -2.533   5.767   0.000  1.00  0.00     0.282 C 
ENDBRANCH   3   5
ENDBRANCH   2   3
ENDBRANCH   1   2
BRANCH   1   7
ATOM      7  C   UNL     1      -2.341  -0.769   0.000  1.00  0.00     0.101 C 
ATOM      8  C   UNL     1      -3.389   0.305   0.000  1.00  0.00     0.317 C 
ATOM      9  C   UNL     1      -3.040  -2.096   0.000  1.00  0.00     0.062 C 
ATOM     10  C   UNL     1      -0.843  -0.710   0.000  1.00  0.00     0.068 C 
ATOM     11  O   UNL     1      -4.734  -0.358   0.000  1.00  0.00    -0.459 OA
ATOM     12  C   UNL     1      -4.518  -1.843   0.000  1.00  0.00     0.111 C 
ATOM     13  C   UNL     1      -2.239  -3.365   0.000  1.00  0.00     0.085 C 
ATOM     14  C   UNL     1      -0.042  -1.978   0.000  1.00  0.00     0.067 C 
ATOM     15  C   UNL     1      -0.145   0.618   0.000  1.00  0.00     0.183 C 
ATOM     16  C   UNL     1      -0.740  -3.306   0.000  1.00  0.00     0.142 C 
ATOM     17  C   UNL     1       1.457  -1.919   0.000  1.00  0.00     0.128 C 
ATOM     18  C   UNL     1       1.354   0.677   0.000  1.00  0.00     0.059 C 
ATOM     19  O   UNL     1       0.759  -3.246   0.000  1.00  0.00    -0.352 OA
ATOM     20  C   UNL     1       2.155  -0.591   0.000  1.00  0.00     0.046 C 
ATOM     21  C   UNL     1       2.258  -3.187   0.000  1.00  0.00     0.262 C 
ATOM     22  C   UNL     1       3.654  -0.532   0.000  1.00  0.00     0.219 C 
ATOM     23  C   UNL     1       3.756  -3.128   0.000  1.00  0.00     0.339 C 
ATOM     24  O   UNL     1       4.455  -1.800   0.000  1.00  0.00    -0.455 OA
ATOM     25  O   UNL     1      -3.479   1.517   0.000  1.00  0.00    -0.251 OA
ATOM     26  C   UNL     1      -6.017  -1.902   0.000  1.00  0.00     0.057 C 
ATOM     27  C   UNL     1      -4.616  -3.340   0.000  1.00  0.00     0.057 C 
ATOM     28  C   UNL     1      -1.541  -2.037   0.000  1.00  0.00     0.023 C 
ATOM     29  O   UNL     1       0.061  -4.574   0.000  1.00  0.00    -0.299 OA
ATOM     30  C   UNL     1       2.853   0.737   0.000  1.00  0.00     0.019 C 
ATOM     31  O   UNL     1       4.557  -4.396   0.000  1.00  0.00    -0.249 OA
BRANCH  15  32
ATOM     32  O   UNL     1      -0.945   1.886   0.000  1.00  0.00    -0.462 OA
BRANCH  32  33
ATOM     33  C   UNL     1      -0.247   3.214   0.000  1.00  0.00     0.302 C 
ATOM     34  C   UNL     1      -0.720   3.963   0.000  1.00  0.00     0.139 C 
ATOM     35  O   UNL     1       1.252   3.273   0.000  1.00  0.00    -0.253 OA
ENDBRANCH  32  33
ENDBRANCH  15  32
BRANCH  22  36
ATOM     36  C   UNL     1       4.352   0.796   0.000  1.00  0.00     0.031 A 
ATOM     37  C   UNL     1       3.688   2.141   0.000  1.00  0.00     0.202 A 
ATOM     38  C   UNL     1       5.836   1.012   0.000  1.00  0.00     0.049 A 
ATOM     39  O   UNL     1       4.762   3.188   0.000  1.00  0.00    -0.472 OA
ATOM     40  C   UNL     1       6.090   2.490   0.000  1.00  0.00     0.195 A 
ENDBRANCH  22  36
ENDBRANCH   1   7
TORSDOF 7
