REMARK SMILES CC1=CC(=O)CC(C)(C)[C@@]1(O)/C=C/[C@H](C)O[C@@H]1O[C@H](CO)[C@@H](O)[C@H](O)[C@H]1O
REMARK SMILES IDX 14 1 15 2 13 3 12 4 10 5 2 6 3 7 4 8 7 9 6 10 1 11 5 12 8 13
REMARK SMILES IDX 9 14 11 15 16 17 17 18 18 19 26 20 19 21 24 22 22 23 27 24
REMARK SMILES IDX 20 26 21 27 25 29 23 31
REMARK H PARENT 11 16 27 25 21 28 25 30 23 32
ROOT
ATOM      1  C   UNL     1       0.409  -1.347   0.000  1.00  0.00     0.141 C 
ATOM      2  C   UNL     1       1.326  -2.534   0.000  1.00  0.00     0.043 C 
ENDROOT
BRANCH   1   3
ATOM      3  C   UNL     1      -1.078  -1.548   0.000  1.00  0.00     0.003 C 
BRANCH   3   4
ATOM      4  C   UNL     1      -1.995  -0.361   0.000  1.00  0.00     0.011 C 
BRANCH   4   5
ATOM      5  C   UNL     1      -3.481  -0.562   0.000  1.00  0.00     0.109 C 
ATOM      6  C   UNL     1      -4.810  -1.259   0.000  1.00  0.00    -0.034 C 
ATOM      7  C   UNL     1      -6.077  -0.457   0.000  1.00  0.00     0.049 C 
ATOM      8  C   UNL     1      -6.017   1.042   0.000  1.00  0.00     0.156 C 
ATOM      9  C   UNL     1      -3.421   0.937   0.000  1.00  0.00     0.008 C 
ATOM     10  C   UNL     1      -4.689   1.739   0.000  1.00  0.00     0.090 C 
ATOM     11  C   UNL     1      -4.870  -2.757   0.000  1.00  0.00     0.043 C 
ATOM     12  O   UNL     1      -7.284   1.844   0.000  1.00  0.00    -0.295 OA
ATOM     13  C   UNL     1      -2.851   2.325   0.000  1.00  0.00     0.015 C 
ATOM     14  C   UNL     1      -1.955   0.617   0.000  1.00  0.00     0.015 C 
BRANCH   5  15
ATOM     15  O   UNL     1      -3.026  -1.991   0.000  1.00  0.00    -0.381 OA
ATOM     16  H   UNL     1       0.000   0.000   0.000  1.00  0.00     0.212 HD
ENDBRANCH   5  15
ENDBRANCH   4   5
ENDBRANCH   3   4
ENDBRANCH   1   3
BRANCH   1  17
ATOM     17  O   UNL     1       0.978   0.040   0.000  1.00  0.00    -0.343 OA
BRANCH  17  18
ATOM     18  C   UNL     1       2.465   0.241   0.000  1.00  0.00     0.282 C 
ATOM     19  O   UNL     1       3.382  -0.946   0.000  1.00  0.00    -0.341 OA
ATOM     20  C   UNL     1       3.034   1.629   0.000  1.00  0.00     0.202 C 
ATOM     21  C   UNL     1       4.868  -0.746   0.000  1.00  0.00     0.178 C 
ATOM     22  C   UNL     1       4.521   1.829   0.000  1.00  0.00     0.179 C 
ATOM     23  C   UNL     1       5.438   0.642   0.000  1.00  0.00     0.177 C 
BRANCH  20  24
ATOM     24  O   UNL     1       2.117   2.816   0.000  1.00  0.00    -0.385 OA
ATOM     25  H   UNL     1       0.000   0.000   0.000  1.00  0.00     0.211 HD
ENDBRANCH  20  24
BRANCH  21  26
ATOM     26  C   UNL     1       5.785  -1.933   0.000  1.00  0.00     0.191 C 
BRANCH  26  27
ATOM     27  O   UNL     1       5.216  -3.320   0.000  1.00  0.00    -0.394 OA
ATOM     28  H   UNL     1       0.000   0.000   0.000  1.00  0.00     0.210 HD
ENDBRANCH  26  27
ENDBRANCH  21  26
BRANCH  22  29
ATOM     29  O   UNL     1       5.090   3.217   0.000  1.00  0.00    -0.387 OA
ATOM     30  H   UNL     1       0.000   0.000   0.000  1.00  0.00     0.211 HD
ENDBRANCH  22  29
BRANCH  23  31
ATOM     31  O   UNL     1       6.924   0.843   0.000  1.00  0.00    -0.387 OA
ATOM     32  H   UNL     1       0.000   0.000   0.000  1.00  0.00     0.211 HD
ENDBRANCH  23  31
ENDBRANCH  17  18
ENDBRANCH   1  17
TORSDOF 11
