REMARK SMILES O=c1c(O)c(-c2ccc(O)cc2)oc2cc(O)ccc12
REMARK SMILES IDX 1 1 2 2 3 3 5 4 13 5 14 6 15 7 16 8 18 9 19 10 20 11 4 12
REMARK SMILES IDX 6 14 7 15 12 16 8 17 11 18 9 19 10 20 17 22
REMARK H PARENT 4 13 10 21 17 23
ROOT
ATOM      1  O   UNL     1       1.850   3.297   0.000  1.00  0.00    -0.285 OA
ATOM      2  C   UNL     1       1.376   1.874   0.000  1.00  0.00     0.235 A 
ATOM      3  C   UNL     1      -0.093   1.572   0.000  1.00  0.00     0.208 A 
ATOM      4  C   UNL     1      -0.567   0.149   0.000  1.00  0.00     0.180 A 
ATOM      5  O   UNL     1       0.429  -0.973   0.000  1.00  0.00    -0.452 OA
ATOM      6  C   UNL     1       1.899  -0.671   0.000  1.00  0.00     0.142 A 
ATOM      7  C   UNL     1       2.895  -1.793   0.000  1.00  0.00     0.094 A 
ATOM      8  C   UNL     1       4.364  -1.491   0.000  1.00  0.00     0.119 A 
ATOM      9  C   UNL     1       4.838  -0.068   0.000  1.00  0.00     0.047 A 
ATOM     10  C   UNL     1       3.841   1.054   0.000  1.00  0.00     0.020 A 
ATOM     11  C   UNL     1       2.372   0.752   0.000  1.00  0.00     0.069 A 
ENDROOT
BRANCH   3  12
ATOM     12  O   UNL     1      -1.089   2.694   0.000  1.00  0.00    -0.502 OA
ATOM     13  H   UNL     1       0.000   0.000   0.000  1.00  0.00     0.293 HD
ENDBRANCH   3  12
BRANCH   4  14
ATOM     14  C   UNL     1      -2.036  -0.153   0.000  1.00  0.00     0.021 A 
ATOM     15  C   UNL     1      -3.032   0.969   0.000  1.00  0.00     0.016 A 
ATOM     16  C   UNL     1      -2.509  -1.576   0.000  1.00  0.00     0.016 A 
ATOM     17  C   UNL     1      -4.501   0.667   0.000  1.00  0.00     0.047 A 
ATOM     18  C   UNL     1      -3.979  -1.878   0.000  1.00  0.00     0.047 A 
ATOM     19  C   UNL     1      -4.975  -0.756   0.000  1.00  0.00     0.115 A 
BRANCH  19  20
ATOM     20  O   UNL     1      -6.444  -1.058   0.000  1.00  0.00    -0.508 OA
ATOM     21  H   UNL     1       0.000   0.000   0.000  1.00  0.00     0.293 HD
ENDBRANCH  19  20
ENDBRANCH   4  14
BRANCH   8  22
ATOM     22  O   UNL     1       5.360  -2.613   0.000  1.00  0.00    -0.508 OA
ATOM     23  H   UNL     1       0.000   0.000   0.000  1.00  0.00     0.293 HD
ENDBRANCH   8  22
TORSDOF 4
