REMARK SMILES COc1cc2c(cc1OC)[C@@]1(O)C(=O)c3c(O)cc4c(c3OC1CO2)C=CC(C)(C)O4
REMARK SMILES IDX 3 1 4 2 5 3 6 4 7 5 8 6 11 7 13 8 14 9 15 10 16 11 18 12
REMARK SMILES IDX 19 13 31 14 28 15 29 16 30 17 27 18 26 19 20 20 21 21 22 22
REMARK SMILES IDX 23 23 24 24 25 25 2 26 1 27 9 28 10 29 12 30 17 32
REMARK H PARENT 12 31 17 33
ROOT
ATOM      1  C   UNL     1      -5.422   0.357   0.000  1.00  0.00     0.164 A 
ATOM      2  C   UNL     1      -4.677   1.659   0.000  1.00  0.00     0.097 A 
ATOM      3  C   UNL     1      -3.177   1.665   0.000  1.00  0.00     0.130 A 
ATOM      4  C   UNL     1      -2.422   0.368   0.000  1.00  0.00     0.041 A 
ATOM      5  C   UNL     1      -3.167  -0.933   0.000  1.00  0.00     0.061 A 
ATOM      6  C   UNL     1      -4.668  -0.939   0.000  1.00  0.00     0.161 A 
ATOM      7  C   UNL     1      -0.922   0.374   0.000  1.00  0.00     0.197 C 
ATOM      8  C   UNL     1      -0.168  -0.922   0.000  1.00  0.00     0.210 C 
ATOM      9  O   UNL     1      -0.913  -2.224   0.000  1.00  0.00    -0.290 OA
ATOM     10  C   UNL     1       1.333  -0.917   0.000  1.00  0.00     0.106 A 
ATOM     11  C   UNL     1       2.087  -2.213   0.000  1.00  0.00     0.134 A 
ATOM     12  C   UNL     1       3.587  -2.208   0.000  1.00  0.00     0.094 A 
ATOM     13  C   UNL     1       4.332  -0.906   0.000  1.00  0.00     0.135 A 
ATOM     14  O   UNL     1       5.832  -0.900   0.000  1.00  0.00    -0.483 OA
ATOM     15  C   UNL     1       6.578   0.401   0.000  1.00  0.00     0.122 C 
ATOM     16  C   UNL     1       7.723   1.370   0.000  1.00  0.00     0.061 C 
ATOM     17  C   UNL     1       7.730  -0.559   0.000  1.00  0.00     0.061 C 
ATOM     18  C   UNL     1       5.823   1.698   0.000  1.00  0.00     0.021 C 
ATOM     19  C   UNL     1       4.323   1.692   0.000  1.00  0.00     0.015 C 
ATOM     20  C   UNL     1       3.578   0.390   0.000  1.00  0.00     0.060 A 
ATOM     21  C   UNL     1       2.078   0.385   0.000  1.00  0.00     0.145 A 
ATOM     22  O   UNL     1       1.323   1.681   0.000  1.00  0.00    -0.481 OA
ATOM     23  C   UNL     1      -0.177   1.675   0.000  1.00  0.00     0.255 C 
ATOM     24  C   UNL     1      -0.932   2.972   0.000  1.00  0.00     0.278 C 
ATOM     25  O   UNL     1      -2.432   2.966   0.000  1.00  0.00    -0.489 OA
ENDROOT
BRANCH   1  26
ATOM     26  O   UNL     1      -6.922   0.352   0.000  1.00  0.00    -0.493 OA
ATOM     27  C   UNL     1      -7.677   1.648   0.000  1.00  0.00     0.278 C 
ENDBRANCH   1  26
BRANCH   6  28
ATOM     28  O   UNL     1      -5.413  -2.241   0.000  1.00  0.00    -0.493 OA
ATOM     29  C   UNL     1      -6.913  -2.246   0.000  1.00  0.00     0.278 C 
ENDBRANCH   6  28
BRANCH   7  30
ATOM     30  O   UNL     1      -1.667  -0.928   0.000  1.00  0.00    -0.373 OA
ATOM     31  H   UNL     1       0.000   0.000   0.000  1.00  0.00     0.212 HD
ENDBRANCH   7  30
BRANCH  11  32
ATOM     32  O   UNL     1       1.342  -3.515   0.000  1.00  0.00    -0.507 OA
ATOM     33  H   UNL     1       0.000   0.000   0.000  1.00  0.00     0.293 HD
ENDBRANCH  11  32
TORSDOF 4
