REMARK SMILES CC1(C)CC[C@]2(C(=O)OOC[C@H]3O[C@@H](O)[C@H](O)[C@@H](O)[C@@H]3O)CC[C@]3(C)C(=CC[C@@H]4[C@@]5(C)C[C@@H](O)[C@H](O)C(C)(C)[C@@H]5CC[C@]43C)[C@@H]2C1
REMARK SMILES IDX 9 1 7 2 8 3 6 4 2 5 4 6 46 7 5 8 45 9 26 10 22 11 24 12
REMARK SMILES IDX 27 13 23 14 43 15 28 16 42 17 29 18 41 19 30 20 40 21 32 22
REMARK SMILES IDX 37 23 33 24 35 25 1 26 3 27 25 28 44 29 31 30 38 31 39 32
REMARK SMILES IDX 34 33 36 35 10 37 11 38 12 39 13 40 20 41 14 42 18 43 16 44
REMARK SMILES IDX 21 45 15 47 19 49 17 51
REMARK H PARENT 34 34 36 36 21 46 15 48 19 50 17 52
ROOT
ATOM      1  O   UNL     1      -3.441  -0.807   0.000  1.00  0.00    -0.298 OA
ENDROOT
BRANCH   1   2
ATOM      2  C   UNL     1      -2.054  -0.235   0.000  1.00  0.00     0.349 C 
ATOM      3  O   UNL     1      -1.856   1.251   0.000  1.00  0.00    -0.248 OA
BRANCH   2   4
ATOM      4  C   UNL     1      -0.866  -1.151   0.000  1.00  0.00     0.078 C 
ATOM      5  C   UNL     1      -1.264  -4.124   0.000  1.00  0.00    -0.035 C 
ATOM      6  C   UNL     1      -2.452  -3.209   0.000  1.00  0.00     0.007 C 
ATOM      7  C   UNL     1       0.123  -3.553   0.000  1.00  0.00     0.015 C 
ATOM      8  C   UNL     1      -2.253  -1.722   0.000  1.00  0.00     0.020 C 
ATOM      9  C   UNL     1       0.322  -2.066   0.000  1.00  0.00     0.033 C 
ATOM     10  C   UNL     1       1.709  -1.495   0.000  1.00  0.00    -0.063 C 
ATOM     11  C   UNL     1      -0.667   0.336   0.000  1.00  0.00     0.020 C 
ATOM     12  C   UNL     1       1.908  -0.008   0.000  1.00  0.00    -0.006 C 
ATOM     13  C   UNL     1       2.897  -2.410   0.000  1.00  0.00    -0.027 C 
ATOM     14  C   UNL     1       0.720   0.907   0.000  1.00  0.00     0.013 C 
ATOM     15  C   UNL     1       3.295   0.563   0.000  1.00  0.00    -0.020 C 
ATOM     16  C   UNL     1       4.284  -1.839   0.000  1.00  0.00     0.032 C 
ATOM     17  C   UNL     1       3.494   2.050   0.000  1.00  0.00     0.008 C 
ATOM     18  C   UNL     1       4.483  -0.352   0.000  1.00  0.00     0.006 C 
ATOM     19  C   UNL     1       4.880   2.621   0.000  1.00  0.00     0.005 C 
ATOM     20  C   UNL     1       5.870   0.219   0.000  1.00  0.00    -0.023 C 
ATOM     21  C   UNL     1       6.069   1.706   0.000  1.00  0.00     0.004 C 
ATOM     22  C   UNL     1       7.058  -0.697   0.000  1.00  0.00     0.042 C 
ATOM     23  C   UNL     1       7.456   2.277   0.000  1.00  0.00    -0.003 C 
ATOM     24  C   UNL     1       8.445  -0.125   0.000  1.00  0.00     0.144 C 
ATOM     25  C   UNL     1       8.644   1.361   0.000  1.00  0.00     0.149 C 
ATOM     26  C   UNL     1      -0.460  -5.391   0.000  1.00  0.00     0.011 C 
ATOM     27  C   UNL     1      -2.372  -5.136   0.000  1.00  0.00     0.011 C 
ATOM     28  C   UNL     1       3.096  -0.924   0.000  1.00  0.00     0.017 C 
ATOM     29  C   UNL     1       2.107   1.478   0.000  1.00  0.00     0.012 C 
ATOM     30  C   UNL     1       5.671  -1.268   0.000  1.00  0.00     0.012 C 
ATOM     31  C   UNL     1       6.652   3.544   0.000  1.00  0.00     0.014 C 
ATOM     32  C   UNL     1       8.563   3.288   0.000  1.00  0.00     0.014 C 
BRANCH  24  33
ATOM     33  O   UNL     1       9.633  -1.041   0.000  1.00  0.00    -0.390 OA
ATOM     34  H   UNL     1       0.000   0.000   0.000  1.00  0.00     0.211 HD
ENDBRANCH  24  33
BRANCH  25  35
ATOM     35  O   UNL     1      10.031   1.933   0.000  1.00  0.00    -0.390 OA
ATOM     36  H   UNL     1       0.000   0.000   0.000  1.00  0.00     0.211 HD
ENDBRANCH  25  35
ENDBRANCH   2   4
ENDBRANCH   1   2
BRANCH   1  37
ATOM     37  O   UNL     1      -4.630   0.109   0.000  1.00  0.00    -0.182 OA
BRANCH  37  38
ATOM     38  C   UNL     1      -6.016  -0.462   0.000  1.00  0.00     0.251 C 
BRANCH  38  39
ATOM     39  C   UNL     1      -7.205   0.453   0.000  1.00  0.00     0.183 C 
ATOM     40  O   UNL     1      -7.006   1.940   0.000  1.00  0.00    -0.341 OA
ATOM     41  C   UNL     1      -8.592  -0.118   0.000  1.00  0.00     0.177 C 
ATOM     42  C   UNL     1      -8.194   2.855   0.000  1.00  0.00     0.279 C 
ATOM     43  C   UNL     1      -9.780   0.797   0.000  1.00  0.00     0.179 C 
ATOM     44  C   UNL     1      -9.581   2.284   0.000  1.00  0.00     0.201 C 
BRANCH  41  45
ATOM     45  O   UNL     1      -8.790  -1.605   0.000  1.00  0.00    -0.387 OA
ATOM     46  H   UNL     1       0.000   0.000   0.000  1.00  0.00     0.211 HD
ENDBRANCH  41  45
BRANCH  42  47
ATOM     47  O   UNL     1      -7.995   4.342   0.000  1.00  0.00    -0.366 OA
ATOM     48  H   UNL     1       0.000   0.000   0.000  1.00  0.00     0.213 HD
ENDBRANCH  42  47
BRANCH  43  49
ATOM     49  O   UNL     1     -11.167   0.226   0.000  1.00  0.00    -0.387 OA
ATOM     50  H   UNL     1       0.000   0.000   0.000  1.00  0.00     0.211 HD
ENDBRANCH  43  49
BRANCH  44  51
ATOM     51  O   UNL     1     -10.769   3.200   0.000  1.00  0.00    -0.385 OA
ATOM     52  H   UNL     1       0.000   0.000   0.000  1.00  0.00     0.211 HD
ENDBRANCH  44  51
ENDBRANCH  38  39
ENDBRANCH  37  38
ENDBRANCH   1  37
TORSDOF 11
