REMARK SMILES C=CCC1=C[C@@](OC)([C@H](C)Cc2ccc(O)c(OC)c2)C(OC)=CC1=O
REMARK SMILES IDX 9 1 10 2 6 3 4 4 5 5 25 6 24 7 21 8 26 9 3 10 2 11 1 12 7 13
REMARK SMILES IDX 8 14 22 15 23 16 11 17 12 18 13 19 20 20 14 21 17 22 15 23
REMARK SMILES IDX 18 24 19 25 16 26
REMARK H PARENT 16 27
ROOT
ATOM      1  C   UNL     1       0.551   1.147   0.000  1.00  0.00     0.034 C 
ATOM      2  C   UNL     1       0.213   2.609   0.000  1.00  0.00     0.012 C 
ENDROOT
BRANCH   1   3
ATOM      3  C   UNL     1       1.985   0.709   0.000  1.00  0.00     0.146 C 
ATOM      4  C   UNL     1       2.122  -1.885   0.000  1.00  0.00     0.003 C 
ATOM      5  C   UNL     1       1.304  -0.628   0.000  1.00  0.00     0.024 C 
ATOM      6  C   UNL     1       3.619  -1.807   0.000  1.00  0.00     0.185 C 
ATOM      7  C   UNL     1       4.300  -0.470   0.000  1.00  0.00     0.097 C 
ATOM      8  C   UNL     1       3.483   0.788   0.000  1.00  0.00     0.136 C 
ATOM      9  O   UNL     1       4.437  -3.065   0.000  1.00  0.00    -0.290 OA
BRANCH   4  10
ATOM     10  C   UNL     1       1.441  -3.222   0.000  1.00  0.00     0.066 C 
BRANCH  10  11
ATOM     11  C   UNL     1      -0.057  -3.301   0.000  1.00  0.00    -0.030 C 
ATOM     12  C   UNL     1      -0.738  -4.638   0.000  1.00  0.00     0.004 C 
ENDBRANCH  10  11
ENDBRANCH   4  10
BRANCH   3  13
ATOM     13  O   UNL     1       2.168   2.198   0.000  1.00  0.00    -0.366 OA
ATOM     14  C   UNL     1       3.548   2.784   0.000  1.00  0.00     0.196 C 
ENDBRANCH   3  13
BRANCH   8  15
ATOM     15  O   UNL     1       4.164   2.124   0.000  1.00  0.00    -0.498 OA
ATOM     16  C   UNL     1       5.662   2.203   0.000  1.00  0.00     0.278 C 
ENDBRANCH   8  15
ENDBRANCH   1   3
BRANCH   1  17
ATOM     17  C   UNL     1      -0.546   0.124   0.000  1.00  0.00     0.042 C 
BRANCH  17  18
ATOM     18  C   UNL     1      -1.981   0.562   0.000  1.00  0.00    -0.044 A 
ATOM     19  C   UNL     1      -2.318   2.024   0.000  1.00  0.00     0.008 A 
ATOM     20  C   UNL     1      -3.078  -0.461   0.000  1.00  0.00     0.054 A 
ATOM     21  C   UNL     1      -3.753   2.462   0.000  1.00  0.00     0.050 A 
ATOM     22  C   UNL     1      -4.512  -0.022   0.000  1.00  0.00     0.160 A 
ATOM     23  C   UNL     1      -4.850   1.439   0.000  1.00  0.00     0.157 A 
BRANCH  22  24
ATOM     24  O   UNL     1      -5.609  -1.046   0.000  1.00  0.00    -0.493 OA
ATOM     25  C   UNL     1      -5.271  -2.507   0.000  1.00  0.00     0.278 C 
ENDBRANCH  22  24
BRANCH  23  26
ATOM     26  O   UNL     1      -6.284   1.877   0.000  1.00  0.00    -0.504 OA
ATOM     27  H   UNL     1       0.000   0.000   0.000  1.00  0.00     0.293 HD
ENDBRANCH  23  26
ENDBRANCH  17  18
ENDBRANCH   1  17
TORSDOF 9
