REMARK SMILES COc1cc2c(cc1OC)-c1c(oc3c4c(cc(O)c3c1=O)OC(C)(C)C=C4)CO2
REMARK SMILES IDX 3 1 4 2 5 3 6 4 7 5 8 6 11 7 12 8 29 9 30 10 13 11 14 12
REMARK SMILES IDX 15 13 28 14 27 15 24 16 25 17 26 18 23 19 16 20 17 21 18 22
REMARK SMILES IDX 20 23 21 24 22 25 2 26 1 27 9 28 10 29 19 30
REMARK H PARENT 19 31
ROOT
ATOM      1  C   UNL     1      -5.553  -0.363   0.000  1.00  0.00     0.164 A 
ATOM      2  C   UNL     1      -4.810  -1.666   0.000  1.00  0.00     0.097 A 
ATOM      3  C   UNL     1      -3.310  -1.673   0.000  1.00  0.00     0.132 A 
ATOM      4  C   UNL     1      -2.553  -0.377   0.000  1.00  0.00     0.035 A 
ATOM      5  C   UNL     1      -3.297   0.925   0.000  1.00  0.00     0.063 A 
ATOM      6  C   UNL     1      -4.797   0.932   0.000  1.00  0.00     0.161 A 
ATOM      7  C   UNL     1      -1.054  -0.385   0.000  1.00  0.00     0.076 A 
ATOM      8  C   UNL     1      -0.310  -1.687   0.000  1.00  0.00     0.153 A 
ATOM      9  C   UNL     1      -1.066  -2.983   0.000  1.00  0.00     0.305 C 
ATOM     10  O   UNL     1      -2.566  -2.975   0.000  1.00  0.00    -0.485 OA
ATOM     11  O   UNL     1       1.190  -1.694   0.000  1.00  0.00    -0.456 OA
ATOM     12  C   UNL     1       1.946  -0.399   0.000  1.00  0.00     0.153 A 
ATOM     13  C   UNL     1       3.446  -0.406   0.000  1.00  0.00     0.060 A 
ATOM     14  C   UNL     1       4.190  -1.709   0.000  1.00  0.00     0.015 C 
ATOM     15  C   UNL     1       5.690  -1.716   0.000  1.00  0.00     0.021 C 
ATOM     16  C   UNL     1       6.446  -0.421   0.000  1.00  0.00     0.122 C 
ATOM     17  C   UNL     1       7.600   0.538   0.000  1.00  0.00     0.061 C 
ATOM     18  C   UNL     1       7.591  -1.390   0.000  1.00  0.00     0.061 C 
ATOM     19  O   UNL     1       5.703   0.882   0.000  1.00  0.00    -0.483 OA
ATOM     20  C   UNL     1       4.203   0.889   0.000  1.00  0.00     0.135 A 
ATOM     21  C   UNL     1       3.459   2.192   0.000  1.00  0.00     0.094 A 
ATOM     22  C   UNL     1       1.959   2.199   0.000  1.00  0.00     0.134 A 
ATOM     23  C   UNL     1       1.203   0.904   0.000  1.00  0.00     0.108 A 
ATOM     24  C   UNL     1      -0.297   0.911   0.000  1.00  0.00     0.204 A 
ATOM     25  O   UNL     1      -1.041   2.213   0.000  1.00  0.00    -0.288 OA
ENDROOT
BRANCH   1  26
ATOM     26  O   UNL     1      -7.053  -0.356   0.000  1.00  0.00    -0.493 OA
ATOM     27  C   UNL     1      -7.810  -1.651   0.000  1.00  0.00     0.278 C 
ENDBRANCH   1  26
BRANCH   6  28
ATOM     28  O   UNL     1      -5.541   2.235   0.000  1.00  0.00    -0.493 OA
ATOM     29  C   UNL     1      -4.785   3.530   0.000  1.00  0.00     0.278 C 
ENDBRANCH   6  28
BRANCH  22  30
ATOM     30  O   UNL     1       1.215   3.502   0.000  1.00  0.00    -0.507 OA
ATOM     31  H   UNL     1       0.000   0.000   0.000  1.00  0.00     0.293 HD
ENDBRANCH  22  30
TORSDOF 3
