REMARK SMILES COc1ccc([C@H]2OC[C@@H]3[C@H]2CO[C@H]3c2ccc(OC)c(OC)c2)cc1OC
REMARK SMILES IDX 7 1 8 2 9 3 10 4 11 5 12 6 13 7 14 8 6 9 3 10 4 11 26 12
REMARK SMILES IDX 5 13 25 14 2 15 1 16 27 17 28 18 15 19 16 20 24 21 17 22
REMARK SMILES IDX 21 23 18 24 22 25 23 26 19 27 20 28
REMARK H PARENT
ROOT
ATOM      1  C   UNL     1       1.686  -0.816   0.000  1.00  0.00     0.154 C 
ATOM      2  O   UNL     1       0.931  -2.112   0.000  1.00  0.00    -0.373 OA
ATOM      3  C   UNL     1      -0.535  -1.795   0.000  1.00  0.00     0.168 C 
ATOM      4  C   UNL     1      -0.686  -0.302   0.000  1.00  0.00     0.057 C 
ATOM      5  C   UNL     1       0.686   0.302   0.000  1.00  0.00     0.057 C 
ATOM      6  C   UNL     1       0.535   1.795   0.000  1.00  0.00     0.168 C 
ATOM      7  O   UNL     1      -0.931   2.112   0.000  1.00  0.00    -0.373 OA
ATOM      8  C   UNL     1      -1.686   0.816   0.000  1.00  0.00     0.154 C 
ENDROOT
BRANCH   1   9
ATOM      9  C   UNL     1       3.178  -0.665   0.000  1.00  0.00    -0.015 A 
ATOM     10  C   UNL     1       6.163  -0.363   0.000  1.00  0.00     0.160 A 
ATOM     11  C   UNL     1       5.548  -1.731   0.000  1.00  0.00     0.051 A 
ATOM     12  C   UNL     1       5.286   0.854   0.000  1.00  0.00     0.161 A 
ATOM     13  C   UNL     1       4.055  -1.882   0.000  1.00  0.00     0.010 A 
ATOM     14  C   UNL     1       3.793   0.703   0.000  1.00  0.00     0.056 A 
BRANCH  10  15
ATOM     15  O   UNL     1       7.655  -0.212   0.000  1.00  0.00    -0.493 OA
ATOM     16  C   UNL     1       8.532  -1.429   0.000  1.00  0.00     0.278 C 
ENDBRANCH  10  15
BRANCH  12  17
ATOM     17  O   UNL     1       5.901   2.222   0.000  1.00  0.00    -0.493 OA
ATOM     18  C   UNL     1       5.024   3.439   0.000  1.00  0.00     0.278 C 
ENDBRANCH  12  17
ENDBRANCH   1   9
BRANCH   8  19
ATOM     19  C   UNL     1      -3.178   0.665   0.000  1.00  0.00    -0.015 A 
ATOM     20  C   UNL     1      -4.055   1.882   0.000  1.00  0.00     0.010 A 
ATOM     21  C   UNL     1      -3.793  -0.703   0.000  1.00  0.00     0.056 A 
ATOM     22  C   UNL     1      -5.548   1.731   0.000  1.00  0.00     0.051 A 
ATOM     23  C   UNL     1      -5.286  -0.854   0.000  1.00  0.00     0.161 A 
ATOM     24  C   UNL     1      -6.163   0.363   0.000  1.00  0.00     0.160 A 
BRANCH  23  25
ATOM     25  O   UNL     1      -5.901  -2.222   0.000  1.00  0.00    -0.493 OA
ATOM     26  C   UNL     1      -5.024  -3.439   0.000  1.00  0.00     0.278 C 
ENDBRANCH  23  25
BRANCH  24  27
ATOM     27  O   UNL     1      -7.655   0.212   0.000  1.00  0.00    -0.493 OA
ATOM     28  C   UNL     1      -8.532   1.429   0.000  1.00  0.00     0.278 C 
ENDBRANCH  24  27
ENDBRANCH   8  19
TORSDOF 6
