REMARK SMILES C=CC(C)(C)c1cc2ccc(O)c(OC)c2oc1=O
REMARK SMILES IDX 6 1 7 2 8 3 9 4 10 5 11 6 13 7 16 8 17 9 18 10 19 11 3 12
REMARK SMILES IDX 4 13 5 14 2 15 1 16 14 17 15 18 12 19
REMARK H PARENT 12 20
ROOT
ATOM      1  C   UNL     1       1.635  -0.276   0.000  1.00  0.00     0.048 A 
ATOM      2  C   UNL     1       0.679  -1.432   0.000  1.00  0.00     0.024 A 
ATOM      3  C   UNL     1      -0.800  -1.182   0.000  1.00  0.00     0.022 A 
ATOM      4  C   UNL     1      -1.756  -2.338   0.000  1.00  0.00     0.016 A 
ATOM      5  C   UNL     1      -3.235  -2.088   0.000  1.00  0.00     0.051 A 
ATOM      6  C   UNL     1      -3.758  -0.683   0.000  1.00  0.00     0.161 A 
ATOM      7  C   UNL     1      -2.802   0.473   0.000  1.00  0.00     0.204 A 
ATOM      8  C   UNL     1      -1.323   0.224   0.000  1.00  0.00     0.184 A 
ATOM      9  O   UNL     1      -0.367   1.379   0.000  1.00  0.00    -0.418 OA
ATOM     10  C   UNL     1       1.112   1.130   0.000  1.00  0.00     0.340 A 
ATOM     11  O   UNL     1       2.067   2.286   0.000  1.00  0.00    -0.246 OA
ENDROOT
BRANCH   1  12
ATOM     12  C   UNL     1       3.114  -0.526   0.000  1.00  0.00     0.014 C 
ATOM     13  C   UNL     1       2.864  -2.005   0.000  1.00  0.00     0.021 C 
ATOM     14  C   UNL     1       3.364   0.953   0.000  1.00  0.00     0.021 C 
BRANCH  12  15
ATOM     15  C   UNL     1       4.593  -0.776   0.000  1.00  0.00    -0.024 C 
ATOM     16  C   UNL     1       5.549   0.380   0.000  1.00  0.00     0.005 C 
ENDBRANCH  12  15
ENDBRANCH   1  12
BRANCH   7  17
ATOM     17  O   UNL     1      -3.326   1.879   0.000  1.00  0.00    -0.490 OA
ATOM     18  C   UNL     1      -2.370   3.035   0.000  1.00  0.00     0.278 C 
ENDBRANCH   7  17
BRANCH   6  19
ATOM     19  O   UNL     1      -5.237  -0.433   0.000  1.00  0.00    -0.504 OA
ATOM     20  H   UNL     1       0.000   0.000   0.000  1.00  0.00     0.293 HD
ENDBRANCH   6  19
TORSDOF 4
