REMARK SMILES COOCCCCCCCCCCOOC
REMARK SMILES IDX 8 1 7 2 6 3 5 4 4 5 3 6 2 7 1 8 9 9 10 10 11 11 12 12 13 13
REMARK SMILES IDX 14 14 15 15 16 16
REMARK H PARENT
ROOT
ATOM      1  C   UNL     1      -0.647   0.379   0.000  1.00  0.00     0.000 C 
ENDROOT
BRANCH   1   2
ATOM      2  C   UNL     1      -1.951  -0.362   0.000  1.00  0.00     0.000 C 
BRANCH   2   3
ATOM      3  C   UNL     1      -3.245   0.397   0.000  1.00  0.00     0.002 C 
BRANCH   3   4
ATOM      4  C   UNL     1      -4.549  -0.344   0.000  1.00  0.00     0.032 C 
BRANCH   4   5
ATOM      5  C   UNL     1      -5.843   0.415   0.000  1.00  0.00     0.202 C 
BRANCH   5   6
ATOM      6  O   UNL     1      -7.147  -0.326   0.000  1.00  0.00    -0.237 OA
BRANCH   6   7
ATOM      7  O   UNL     1      -8.441   0.433   0.000  1.00  0.00    -0.240 OA
ATOM      8  C   UNL     1      -9.745  -0.309   0.000  1.00  0.00     0.240 C 
ENDBRANCH   6   7
ENDBRANCH   5   6
ENDBRANCH   4   5
ENDBRANCH   3   4
ENDBRANCH   2   3
ENDBRANCH   1   2
BRANCH   1   9
ATOM      9  C   UNL     1       0.647  -0.379   0.000  1.00  0.00     0.000 C 
BRANCH   9  10
ATOM     10  C   UNL     1       1.951   0.362   0.000  1.00  0.00     0.000 C 
BRANCH  10  11
ATOM     11  C   UNL     1       3.245  -0.397   0.000  1.00  0.00     0.002 C 
BRANCH  11  12
ATOM     12  C   UNL     1       4.549   0.344   0.000  1.00  0.00     0.032 C 
BRANCH  12  13
ATOM     13  C   UNL     1       5.843  -0.415   0.000  1.00  0.00     0.202 C 
BRANCH  13  14
ATOM     14  O   UNL     1       7.147   0.326   0.000  1.00  0.00    -0.237 OA
BRANCH  14  15
ATOM     15  O   UNL     1       8.441  -0.433   0.000  1.00  0.00    -0.240 OA
ATOM     16  C   UNL     1       9.745   0.309   0.000  1.00  0.00     0.240 C 
ENDBRANCH  14  15
ENDBRANCH  13  14
ENDBRANCH  12  13
ENDBRANCH  11  12
ENDBRANCH  10  11
ENDBRANCH   9  10
ENDBRANCH   1   9
TORSDOF 13
