REMARK SMILES COc1ccc(C[C@H]2CO[C@H](c3ccc(OC)c(OC)c3)[C@H]2COC(C)=O)cc1OC
REMARK SMILES IDX 8 1 9 2 10 3 11 4 22 5 7 6 6 7 3 8 4 9 29 10 5 11 28 12 2 13
REMARK SMILES IDX 1 14 30 15 31 16 23 17 24 18 25 19 26 20 27 21 12 22 13 23
REMARK SMILES IDX 21 24 14 25 18 26 15 27 19 28 20 29 16 30 17 31
REMARK H PARENT
ROOT
ATOM      1  C   UNL     1      -0.680   2.950   0.000  1.00  0.00     0.029 C 
ATOM      2  C   UNL     1       0.373   4.018   0.000  1.00  0.00     0.165 C 
ATOM      3  O   UNL     1       1.714   3.346   0.000  1.00  0.00    -0.373 OA
ATOM      4  C   UNL     1       1.489   1.863   0.000  1.00  0.00     0.155 C 
ATOM      5  C   UNL     1       0.009   1.618   0.000  1.00  0.00     0.066 C 
ENDROOT
BRANCH   1   6
ATOM      6  C   UNL     1      -2.163   3.175   0.000  1.00  0.00     0.042 C 
BRANCH   6   7
ATOM      7  C   UNL     1      -3.100   2.003   0.000  1.00  0.00    -0.044 A 
ATOM      8  C   UNL     1      -4.972  -0.341   0.000  1.00  0.00     0.160 A 
ATOM      9  C   UNL     1      -5.519   1.056   0.000  1.00  0.00     0.051 A 
ATOM     10  C   UNL     1      -3.489  -0.566   0.000  1.00  0.00     0.160 A 
ATOM     11  C   UNL     1      -4.583   2.228   0.000  1.00  0.00     0.008 A 
ATOM     12  C   UNL     1      -2.553   0.606   0.000  1.00  0.00     0.054 A 
BRANCH   8  13
ATOM     13  O   UNL     1      -5.909  -1.512   0.000  1.00  0.00    -0.493 OA
ATOM     14  C   UNL     1      -7.392  -1.288   0.000  1.00  0.00     0.278 C 
ENDBRANCH   8  13
BRANCH  10  15
ATOM     15  O   UNL     1      -2.943  -1.962   0.000  1.00  0.00    -0.493 OA
ATOM     16  C   UNL     1      -3.879  -3.134   0.000  1.00  0.00     0.278 C 
ENDBRANCH  10  15
ENDBRANCH   6   7
ENDBRANCH   1   6
BRANCH   5  17
ATOM     17  C   UNL     1      -0.663   0.277   0.000  1.00  0.00     0.239 C 
BRANCH  17  18
ATOM     18  O   UNL     1       0.162  -0.975   0.000  1.00  0.00    -0.465 OA
BRANCH  18  19
ATOM     19  C   UNL     1      -0.510  -2.316   0.000  1.00  0.00     0.302 C 
ATOM     20  C   UNL     1       0.315  -3.569   0.000  1.00  0.00     0.139 C 
ATOM     21  O   UNL     1      -2.007  -2.405   0.000  1.00  0.00    -0.253 OA
ENDBRANCH  18  19
ENDBRANCH  17  18
ENDBRANCH   5  17
BRANCH   4  22
ATOM     22  C   UNL     1       2.557   0.809   0.000  1.00  0.00    -0.015 A 
ATOM     23  C   UNL     1       2.178  -0.642   0.000  1.00  0.00     0.010 A 
ATOM     24  C   UNL     1       4.003   1.207   0.000  1.00  0.00     0.056 A 
ATOM     25  C   UNL     1       3.246  -1.696   0.000  1.00  0.00     0.051 A 
ATOM     26  C   UNL     1       5.071   0.153   0.000  1.00  0.00     0.161 A 
ATOM     27  C   UNL     1       4.692  -1.298   0.000  1.00  0.00     0.160 A 
BRANCH  26  28
ATOM     28  O   UNL     1       6.517   0.551   0.000  1.00  0.00    -0.493 OA
ATOM     29  C   UNL     1       6.896   2.002   0.000  1.00  0.00     0.278 C 
ENDBRANCH  26  28
BRANCH  27  30
ATOM     30  O   UNL     1       5.760  -2.352   0.000  1.00  0.00    -0.493 OA
ATOM     31  C   UNL     1       5.381  -3.804   0.000  1.00  0.00     0.278 C 
ENDBRANCH  27  30
ENDBRANCH   4  22
TORSDOF 10
