REMARK SMILES COC(=O)C=Cc1c(C(=O)OC)nc2occc2c1OC
REMARK SMILES IDX 6 1 5 2 3 3 4 4 2 5 1 6 7 7 8 8 19 9 13 10 18 11 14 12 17 13
REMARK SMILES IDX 15 14 16 15 9 16 10 17 11 18 12 19 20 20 21 21
REMARK H PARENT
ROOT
ATOM      1  C   UNL     1       0.963   1.099   0.000  1.00  0.00     0.022 C 
ENDROOT
BRANCH   1   2
ATOM      2  C   UNL     1       2.192   0.240   0.000  1.00  0.00     0.094 C 
BRANCH   2   3
ATOM      3  C   UNL     1       3.551   0.875   0.000  1.00  0.00     0.330 C 
ATOM      4  O   UNL     1       3.681   2.370   0.000  1.00  0.00    -0.247 OA
BRANCH   3   5
ATOM      5  O   UNL     1       4.781   0.016   0.000  1.00  0.00    -0.466 OA
ATOM      6  C   UNL     1       6.140   0.651   0.000  1.00  0.00     0.282 C 
ENDBRANCH   3   5
ENDBRANCH   2   3
ENDBRANCH   1   2
BRANCH   1   7
ATOM      7  C   UNL     1      -0.396   0.465   0.000  1.00  0.00     0.051 A 
ATOM      8  C   UNL     1      -0.526  -1.030   0.000  1.00  0.00     0.163 A 
ATOM      9  C   UNL     1      -1.625   1.324   0.000  1.00  0.00     0.141 A 
ATOM     10  N   UNL     1      -1.885  -1.665   0.000  1.00  0.00    -0.205 NA
ATOM     11  C   UNL     1      -2.984   0.689   0.000  1.00  0.00     0.083 A 
ATOM     12  C   UNL     1      -3.114  -0.806   0.000  1.00  0.00     0.230 A 
ATOM     13  C   UNL     1      -4.366   1.274   0.000  1.00  0.00     0.056 A 
ATOM     14  O   UNL     1      -4.575  -1.144   0.000  1.00  0.00    -0.446 OA
ATOM     15  C   UNL     1      -5.349   0.141   0.000  1.00  0.00     0.198 A 
BRANCH   8  16
ATOM     16  C   UNL     1       0.704  -1.889   0.000  1.00  0.00     0.357 C 
ATOM     17  O   UNL     1       2.063  -1.254   0.000  1.00  0.00    -0.244 OA
BRANCH  16  18
ATOM     18  O   UNL     1       0.574  -3.384   0.000  1.00  0.00    -0.464 OA
ATOM     19  C   UNL     1       1.804  -4.243   0.000  1.00  0.00     0.282 C 
ENDBRANCH  16  18
ENDBRANCH   8  16
BRANCH   9  20
ATOM     20  O   UNL     1      -1.496   2.818   0.000  1.00  0.00    -0.495 OA
ATOM     21  C   UNL     1      -0.137   3.453   0.000  1.00  0.00     0.278 C 
ENDBRANCH   9  20
ENDBRANCH   1   7
TORSDOF 7
