REMARK SMILES O=c1c2cc(O)c(O)cc2oc2cc(O)c([C@@H]3O[C@H](CO)[C@@H](O)[C@H](O)[C@H]3O)c(O)c12
REMARK SMILES IDX 17 1 18 2 19 3 22 4 24 5 26 6 16 7 2 8 3 9 30 10 4 11 10 12
REMARK SMILES IDX 28 13 12 14 5 15 9 16 11 17 13 18 7 19 14 20 1 21 29 22 6 24
REMARK SMILES IDX 8 26 15 28 27 30 20 32 21 33 25 35 23 37
REMARK H PARENT 29 23 6 25 8 27 15 29 27 31 21 34 25 36 23 38
ROOT
ATOM      1  C   UNL     1      -2.768   0.063   0.000  1.00  0.00     0.188 C 
ATOM      2  O   UNL     1      -3.897   1.051   0.000  1.00  0.00    -0.362 OA
ATOM      3  C   UNL     1      -5.317   0.567   0.000  1.00  0.00     0.176 C 
ATOM      4  C   UNL     1      -5.608  -0.904   0.000  1.00  0.00     0.177 C 
ATOM      5  C   UNL     1      -4.479  -1.892   0.000  1.00  0.00     0.177 C 
ATOM      6  C   UNL     1      -3.059  -1.408   0.000  1.00  0.00     0.179 C 
ENDROOT
BRANCH   1   7
ATOM      7  C   UNL     1      -1.348   0.547   0.000  1.00  0.00     0.068 A 
ATOM      8  C   UNL     1       2.329  -0.945   0.000  1.00  0.00     0.204 A 
ATOM      9  C   UNL     1       3.749  -0.461   0.000  1.00  0.00     0.069 A 
ATOM     10  C   UNL     1       1.200   0.043   0.000  1.00  0.00     0.108 A 
ATOM     11  C   UNL     1       4.878  -1.449   0.000  1.00  0.00     0.066 A 
ATOM     12  C   UNL     1       4.040   1.010   0.000  1.00  0.00     0.142 A 
ATOM     13  C   UNL     1      -0.220  -0.441   0.000  1.00  0.00     0.140 A 
ATOM     14  C   UNL     1       1.491   1.514   0.000  1.00  0.00     0.146 A 
ATOM     15  C   UNL     1       6.298  -0.965   0.000  1.00  0.00     0.158 A 
ATOM     16  C   UNL     1       5.460   1.494   0.000  1.00  0.00     0.098 A 
ATOM     17  O   UNL     1       2.911   1.998   0.000  1.00  0.00    -0.455 OA
ATOM     18  C   UNL     1       0.362   2.502   0.000  1.00  0.00     0.094 A 
ATOM     19  C   UNL     1       6.589   0.506   0.000  1.00  0.00     0.161 A 
ATOM     20  C   UNL     1      -1.057   2.018   0.000  1.00  0.00     0.128 A 
ATOM     21  O   UNL     1       2.038  -2.416   0.000  1.00  0.00    -0.288 OA
BRANCH  13  22
ATOM     22  O   UNL     1      -0.511  -1.912   0.000  1.00  0.00    -0.506 OA
ATOM     23  H   UNL     1       0.000   0.000   0.000  1.00  0.00     0.293 HD
ENDBRANCH  13  22
BRANCH  15  24
ATOM     24  O   UNL     1       7.426  -1.953   0.000  1.00  0.00    -0.504 OA
ATOM     25  H   UNL     1       0.000   0.000   0.000  1.00  0.00     0.293 HD
ENDBRANCH  15  24
BRANCH  19  26
ATOM     26  O   UNL     1       8.009   0.990   0.000  1.00  0.00    -0.504 OA
ATOM     27  H   UNL     1       0.000   0.000   0.000  1.00  0.00     0.293 HD
ENDBRANCH  19  26
BRANCH  20  28
ATOM     28  O   UNL     1      -2.186   3.006   0.000  1.00  0.00    -0.507 OA
ATOM     29  H   UNL     1       0.000   0.000   0.000  1.00  0.00     0.293 HD
ENDBRANCH  20  28
ENDBRANCH   1   7
BRANCH   6  30
ATOM     30  O   UNL     1      -1.931  -2.396   0.000  1.00  0.00    -0.387 OA
ATOM     31  H   UNL     1       0.000   0.000   0.000  1.00  0.00     0.211 HD
ENDBRANCH   6  30
BRANCH   3  32
ATOM     32  C   UNL     1      -6.446   1.555   0.000  1.00  0.00     0.191 C 
BRANCH  32  33
ATOM     33  O   UNL     1      -6.155   3.027   0.000  1.00  0.00    -0.394 OA
ATOM     34  H   UNL     1       0.000   0.000   0.000  1.00  0.00     0.210 HD
ENDBRANCH  32  33
ENDBRANCH   3  32
BRANCH   5  35
ATOM     35  O   UNL     1      -4.770  -3.363   0.000  1.00  0.00    -0.387 OA
ATOM     36  H   UNL     1       0.000   0.000   0.000  1.00  0.00     0.211 HD
ENDBRANCH   5  35
BRANCH   4  37
ATOM     37  O   UNL     1      -7.028  -1.388   0.000  1.00  0.00    -0.388 OA
ATOM     38  H   UNL     1       0.000   0.000   0.000  1.00  0.00     0.211 HD
ENDBRANCH   4  37
TORSDOF 10
