REMARK SMILES C=C(C)[C@@H]1CC[C@@]2(C)CCC[C@@](C)(O)[C@@H]2C1
REMARK SMILES IDX 4 1 5 2 6 3 7 4 8 5 9 6 10 7 11 8 12 9 13 10 15 11 16 12
REMARK SMILES IDX 2 13 1 14 3 15 14 16
REMARK H PARENT 14 17
ROOT
ATOM      1  C   UNL     1      -1.959   0.109   0.000  1.00  0.00     0.014 C 
ATOM      2  C   UNL     1      -1.700   1.586   0.000  1.00  0.00     0.008 C 
ATOM      3  C   UNL     1      -0.291   2.100   0.000  1.00  0.00     0.008 C 
ATOM      4  C   UNL     1       0.859   1.137   0.000  1.00  0.00    -0.027 C 
ATOM      5  C   UNL     1       1.118   2.615   0.000  1.00  0.00     0.012 C 
ATOM      6  C   UNL     1       2.268   1.652   0.000  1.00  0.00     0.007 C 
ATOM      7  C   UNL     1       3.418   0.689   0.000  1.00  0.00     0.004 C 
ATOM      8  C   UNL     1       3.159  -0.789   0.000  1.00  0.00     0.035 C 
ATOM      9  C   UNL     1       1.750  -1.303   0.000  1.00  0.00     0.065 C 
ATOM     10  C   UNL     1       0.602  -2.268   0.000  1.00  0.00     0.042 C 
ATOM     11  C   UNL     1       0.600  -0.340   0.000  1.00  0.00     0.027 C 
ATOM     12  C   UNL     1      -0.809  -0.854   0.000  1.00  0.00     0.015 C 
ENDROOT
BRANCH   1  13
ATOM     13  C   UNL     1      -3.368  -0.406   0.000  1.00  0.00    -0.077 C 
ATOM     14  C   UNL     1      -3.627  -1.883   0.000  1.00  0.00     0.008 C 
ATOM     15  C   UNL     1      -4.518   0.558   0.000  1.00  0.00     0.039 C 
ENDBRANCH   1  13
BRANCH   9  16
ATOM     16  O   UNL     1       2.501  -2.602   0.000  1.00  0.00    -0.390 OA
ATOM     17  H   UNL     1       0.000   0.000   0.000  1.00  0.00     0.211 HD
ENDBRANCH   9  16
TORSDOF 2
