REMARK SMILES CC1(C)CCC[C@]2(C)[C@H]3Cc4occc4[C@@](C)(O)[C@@H]3[C@@H](O)[C@H](O)[C@@H]12
REMARK SMILES IDX 1 1 2 2 3 3 4 4 5 5 6 6 7 7 8 8 9 9 10 10 11 11 15 12 14 13
REMARK SMILES IDX 13 14 12 15 16 16 17 17 19 18 20 19 22 20 24 21 23 22 21 24
REMARK SMILES IDX 18 26
REMARK H PARENT 23 23 21 25 18 27
ROOT
ATOM      1  C   UNL     1       3.752  -1.234   0.000  1.00  0.00     0.011 C 
ATOM      2  C   UNL     1       3.651   0.263   0.000  1.00  0.00    -0.029 C 
ATOM      3  C   UNL     1       5.143   0.102   0.000  1.00  0.00     0.011 C 
ATOM      4  C   UNL     1       4.069   1.703   0.000  1.00  0.00     0.007 C 
ATOM      5  C   UNL     1       3.030   2.785   0.000  1.00  0.00     0.001 C 
ATOM      6  C   UNL     1       1.573   2.426   0.000  1.00  0.00     0.007 C 
ATOM      7  C   UNL     1       1.156   0.986   0.000  1.00  0.00    -0.023 C 
ATOM      8  C   UNL     1       0.117   2.068   0.000  1.00  0.00     0.012 C 
ATOM      9  C   UNL     1      -0.301   0.627   0.000  1.00  0.00     0.012 C 
ATOM     10  C   UNL     1      -1.339   1.709   0.000  1.00  0.00     0.080 C 
ATOM     11  C   UNL     1      -2.796   1.350   0.000  1.00  0.00     0.110 A 
ATOM     12  C   UNL     1      -3.213  -0.090   0.000  1.00  0.00     0.025 A 
ATOM     13  C   UNL     1      -4.713  -0.138   0.000  1.00  0.00     0.049 A 
ATOM     14  C   UNL     1      -5.222   1.273   0.000  1.00  0.00     0.195 A 
ATOM     15  O   UNL     1      -4.037   2.193   0.000  1.00  0.00    -0.469 OA
ATOM     16  C   UNL     1      -2.175  -1.172   0.000  1.00  0.00     0.096 C 
ATOM     17  C   UNL     1      -1.568  -2.544   0.000  1.00  0.00     0.048 C 
ATOM     18  C   UNL     1      -0.718  -0.814   0.000  1.00  0.00     0.061 C 
ATOM     19  C   UNL     1       0.321  -1.896   0.000  1.00  0.00     0.150 C 
ATOM     20  C   UNL     1       1.777  -1.537   0.000  1.00  0.00     0.147 C 
ATOM     21  C   UNL     1       2.195  -0.096   0.000  1.00  0.00     0.032 C 
ENDROOT
BRANCH  20  22
ATOM     22  O   UNL     1       2.816  -2.619   0.000  1.00  0.00    -0.390 OA
ATOM     23  H   UNL     1       0.000   0.000   0.000  1.00  0.00     0.211 HD
ENDBRANCH  20  22
BRANCH  19  24
ATOM     24  O   UNL     1      -0.097  -3.336   0.000  1.00  0.00    -0.390 OA
ATOM     25  H   UNL     1       0.000   0.000   0.000  1.00  0.00     0.211 HD
ENDBRANCH  19  24
BRANCH  16  26
ATOM     26  O   UNL     1      -3.421  -2.007   0.000  1.00  0.00    -0.385 OA
ATOM     27  H   UNL     1       0.000   0.000   0.000  1.00  0.00     0.211 HD
ENDBRANCH  16  26
TORSDOF 3
