REMARK SMILES COc1ccc(-c2coc3c(OC)c(O)cc(O)c3c2=O)cc1O
REMARK SMILES IDX 7 1 8 2 9 3 10 4 11 5 14 6 16 7 17 8 19 9 20 10 21 11 6 12
REMARK SMILES IDX 3 13 4 14 23 15 5 16 22 17 2 18 1 19 24 20 18 22 12 24 13 25
REMARK SMILES IDX 15 26
REMARK H PARENT 24 21 18 23 15 27
ROOT
ATOM      1  C   UNL     1      -0.437  -0.343   0.000  1.00  0.00     0.065 A 
ATOM      2  C   UNL     1       0.201  -1.701   0.000  1.00  0.00     0.208 A 
ATOM      3  O   UNL     1       1.696  -1.827   0.000  1.00  0.00    -0.459 OA
ATOM      4  C   UNL     1       2.553  -0.596   0.000  1.00  0.00     0.187 A 
ATOM      5  C   UNL     1       4.047  -0.722   0.000  1.00  0.00     0.204 A 
ATOM      6  C   UNL     1       4.904   0.509   0.000  1.00  0.00     0.165 A 
ATOM      7  C   UNL     1       4.266   1.867   0.000  1.00  0.00     0.097 A 
ATOM      8  C   UNL     1       2.771   1.993   0.000  1.00  0.00     0.134 A 
ATOM      9  C   UNL     1       1.915   0.762   0.000  1.00  0.00     0.111 A 
ATOM     10  C   UNL     1       0.420   0.888   0.000  1.00  0.00     0.204 A 
ATOM     11  O   UNL     1      -0.218   2.245   0.000  1.00  0.00    -0.288 OA
ENDROOT
BRANCH   1  12
ATOM     12  C   UNL     1      -1.931  -0.217   0.000  1.00  0.00    -0.007 A 
ATOM     13  C   UNL     1      -4.921   0.035   0.000  1.00  0.00     0.160 A 
ATOM     14  C   UNL     1      -4.064   1.267   0.000  1.00  0.00     0.051 A 
ATOM     15  C   UNL     1      -4.283  -1.322   0.000  1.00  0.00     0.158 A 
ATOM     16  C   UNL     1      -2.569   1.141   0.000  1.00  0.00     0.013 A 
ATOM     17  C   UNL     1      -2.788  -1.448   0.000  1.00  0.00     0.059 A 
BRANCH  13  18
ATOM     18  O   UNL     1      -6.415   0.162   0.000  1.00  0.00    -0.493 OA
ATOM     19  C   UNL     1      -7.053   1.519   0.000  1.00  0.00     0.278 C 
ENDBRANCH  13  18
BRANCH  15  20
ATOM     20  O   UNL     1      -5.139  -2.553   0.000  1.00  0.00    -0.504 OA
ATOM     21  H   UNL     1       0.000   0.000   0.000  1.00  0.00     0.293 HD
ENDBRANCH  15  20
ENDBRANCH   1  12
BRANCH   8  22
ATOM     22  O   UNL     1       2.133   3.350   0.000  1.00  0.00    -0.507 OA
ATOM     23  H   UNL     1       0.000   0.000   0.000  1.00  0.00     0.293 HD
ENDBRANCH   8  22
BRANCH   5  24
ATOM     24  O   UNL     1       4.685  -2.080   0.000  1.00  0.00    -0.490 OA
ATOM     25  C   UNL     1       3.829  -3.311   0.000  1.00  0.00     0.278 C 
ENDBRANCH   5  24
BRANCH   6  26
ATOM     26  O   UNL     1       6.399   0.383   0.000  1.00  0.00    -0.504 OA
ATOM     27  H   UNL     1       0.000   0.000   0.000  1.00  0.00     0.293 HD
ENDBRANCH   6  26
TORSDOF 6
