REMARK SMILES CC1(C)C=Cc2c(ccc3ccc(=O)oc23)O1
REMARK SMILES IDX 1 1 2 2 3 3 4 4 5 5 6 6 7 7 8 8 9 9 10 10 16 11 15 12 13 13
REMARK SMILES IDX 14 14 12 15 11 16 17 17
REMARK H PARENT
ROOT
ATOM      1  C   UNL     1       4.597   0.412   0.000  1.00  0.00     0.061 C 
ATOM      2  C   UNL     1       3.368  -0.448   0.000  1.00  0.00     0.122 C 
ATOM      3  C   UNL     1       4.429  -1.508   0.000  1.00  0.00     0.061 C 
ATOM      4  C   UNL     1       2.508  -1.677   0.000  1.00  0.00     0.021 C 
ATOM      5  C   UNL     1       1.013  -1.546   0.000  1.00  0.00     0.015 C 
ATOM      6  C   UNL     1       0.379  -0.187   0.000  1.00  0.00     0.060 A 
ATOM      7  C   UNL     1       1.240   1.042   0.000  1.00  0.00     0.131 A 
ATOM      8  C   UNL     1       0.606   2.402   0.000  1.00  0.00     0.048 A 
ATOM      9  C   UNL     1      -0.889   2.532   0.000  1.00  0.00     0.016 A 
ATOM     10  C   UNL     1      -1.749   1.304   0.000  1.00  0.00     0.018 A 
ATOM     11  C   UNL     1      -1.115  -0.056   0.000  1.00  0.00     0.149 A 
ATOM     12  O   UNL     1      -1.975  -1.285   0.000  1.00  0.00    -0.422 OA
ATOM     13  C   UNL     1      -3.470  -1.154   0.000  1.00  0.00     0.336 A 
ATOM     14  O   UNL     1      -4.330  -2.383   0.000  1.00  0.00    -0.246 OA
ATOM     15  C   UNL     1      -4.104   0.205   0.000  1.00  0.00     0.094 A 
ATOM     16  C   UNL     1      -3.243   1.434   0.000  1.00  0.00     0.019 A 
ATOM     17  O   UNL     1       2.734   0.911   0.000  1.00  0.00    -0.483 OA
ENDROOT
TORSDOF 0
