REMARK SMILES COc1cc2c(c(OC)c1CCC(=O)O)C=CC(C)(C)O2
REMARK SMILES IDX 11 1 10 2 3 3 4 4 5 5 7 6 6 7 21 8 16 9 18 10 17 11 19 12
REMARK SMILES IDX 20 13 2 14 1 15 8 16 9 17 12 18 13 19 14 20 15 21
REMARK H PARENT 15 22
ROOT
ATOM      1  C   UNL     1      -2.455  -0.654   0.000  1.00  0.00     0.055 C 
ENDROOT
BRANCH   1   2
ATOM      2  C   UNL     1      -1.026  -0.198   0.000  1.00  0.00     0.038 A 
ATOM      3  C   UNL     1      -0.707   1.268   0.000  1.00  0.00     0.129 A 
ATOM      4  C   UNL     1       0.722   1.724   0.000  1.00  0.00     0.094 A 
ATOM      5  C   UNL     1       1.831   0.714   0.000  1.00  0.00     0.135 A 
ATOM      6  C   UNL     1       0.083  -1.207   0.000  1.00  0.00     0.136 A 
ATOM      7  C   UNL     1       1.512  -0.751   0.000  1.00  0.00     0.059 A 
ATOM      8  O   UNL     1       3.260   1.171   0.000  1.00  0.00    -0.483 OA
ATOM      9  C   UNL     1       2.622  -1.761   0.000  1.00  0.00     0.015 C 
ATOM     10  C   UNL     1       4.370   0.161   0.000  1.00  0.00     0.122 C 
ATOM     11  C   UNL     1       4.050  -1.305   0.000  1.00  0.00     0.021 C 
ATOM     12  C   UNL     1       5.171   1.429   0.000  1.00  0.00     0.061 C 
ATOM     13  C   UNL     1       5.758  -0.408   0.000  1.00  0.00     0.061 C 
BRANCH   3  14
ATOM     14  O   UNL     1      -1.816   2.277   0.000  1.00  0.00    -0.496 OA
ATOM     15  C   UNL     1      -1.497   3.743   0.000  1.00  0.00     0.278 C 
ENDBRANCH   3  14
BRANCH   6  16
ATOM     16  O   UNL     1      -0.236  -2.673   0.000  1.00  0.00    -0.496 OA
ATOM     17  C   UNL     1      -1.665  -3.129   0.000  1.00  0.00     0.278 C 
ENDBRANCH   6  16
ENDBRANCH   1   2
BRANCH   1  18
ATOM     18  C   UNL     1      -3.565   0.356   0.000  1.00  0.00     0.127 C 
BRANCH  18  19
ATOM     19  C   UNL     1      -4.994  -0.100   0.000  1.00  0.00     0.303 C 
ATOM     20  O   UNL     1      -5.313  -1.566   0.000  1.00  0.00    -0.252 OA
BRANCH  19  21
ATOM     21  O   UNL     1      -6.103   0.909   0.000  1.00  0.00    -0.481 OA
ATOM     22  H   UNL     1       0.000   0.000   0.000  1.00  0.00     0.296 HD
ENDBRANCH  19  21
ENDBRANCH  18  19
ENDBRANCH   1  18
TORSDOF 6
