REMARK SMILES C/C=C/c1cc(OC)c2c(c1)[C@@H](C)[C@H](c1ccc(O)c(OC)c1)O2
REMARK SMILES IDX 4 1 5 2 6 3 9 4 24 5 14 6 12 7 13 8 10 9 11 10 3 11 2 12
REMARK SMILES IDX 1 13 7 14 8 15 15 16 16 17 23 18 17 19 20 20 18 21 21 22
REMARK SMILES IDX 22 23 19 24
REMARK H PARENT 19 25
ROOT
ATOM      1  C   UNL     1      -4.046  -0.647   0.000  1.00  0.00    -0.022 A 
ATOM      2  C   UNL     1      -3.901   0.846   0.000  1.00  0.00     0.058 A 
ATOM      3  C   UNL     1      -2.536   1.466   0.000  1.00  0.00     0.161 A 
ATOM      4  C   UNL     1      -1.315   0.594   0.000  1.00  0.00     0.165 A 
ATOM      5  O   UNL     1       0.149   0.918   0.000  1.00  0.00    -0.481 OA
ATOM      6  C   UNL     1       0.910  -0.375   0.000  1.00  0.00     0.211 C 
ATOM      7  C   UNL     1      -0.085  -1.498   0.000  1.00  0.00     0.066 C 
ATOM      8  C   UNL     1       0.238  -2.963   0.000  1.00  0.00     0.017 C 
ATOM      9  C   UNL     1      -1.460  -0.899   0.000  1.00  0.00     0.005 A 
ATOM     10  C   UNL     1      -2.826  -1.520   0.000  1.00  0.00     0.016 A 
ENDROOT
BRANCH   1  11
ATOM     11  C   UNL     1      -5.412  -1.268   0.000  1.00  0.00     0.003 C 
BRANCH  11  12
ATOM     12  C   UNL     1      -6.632  -0.396   0.000  1.00  0.00    -0.030 C 
ATOM     13  C   UNL     1      -7.997  -1.017   0.000  1.00  0.00     0.035 C 
ENDBRANCH  11  12
ENDBRANCH   1  11
BRANCH   3  14
ATOM     14  O   UNL     1      -2.390   2.959   0.000  1.00  0.00    -0.493 OA
ATOM     15  C   UNL     1      -3.611   3.832   0.000  1.00  0.00     0.278 C 
ENDBRANCH   3  14
BRANCH   6  16
ATOM     16  C   UNL     1       2.403  -0.520   0.000  1.00  0.00    -0.003 A 
ATOM     17  C   UNL     1       3.023  -1.886   0.000  1.00  0.00     0.011 A 
ATOM     18  C   UNL     1       3.275   0.700   0.000  1.00  0.00     0.058 A 
ATOM     19  C   UNL     1       4.516  -2.031   0.000  1.00  0.00     0.050 A 
ATOM     20  C   UNL     1       4.768   0.555   0.000  1.00  0.00     0.160 A 
ATOM     21  C   UNL     1       5.389  -0.811   0.000  1.00  0.00     0.157 A 
BRANCH  20  22
ATOM     22  O   UNL     1       5.640   1.775   0.000  1.00  0.00    -0.493 OA
ATOM     23  C   UNL     1       5.019   3.141   0.000  1.00  0.00     0.278 C 
ENDBRANCH  20  22
BRANCH  21  24
ATOM     24  O   UNL     1       6.882  -0.956   0.000  1.00  0.00    -0.504 OA
ATOM     25  H   UNL     1       0.000   0.000   0.000  1.00  0.00     0.293 HD
ENDBRANCH  21  24
ENDBRANCH   6  16
TORSDOF 6
