REMARK SMILES COC(=O)CCc1cc(OC)c(OC)c(OC)c1
REMARK SMILES IDX 5 1 3 2 4 3 2 4 1 5 6 6 7 7 8 8 18 9 9 10 15 11 12 12 10 13
REMARK SMILES IDX 11 14 16 15 17 16 13 17 14 18
REMARK H PARENT
ROOT
ATOM      1  C   UNL     1      -2.917   0.271   0.000  1.00  0.00     0.127 C 
ENDROOT
BRANCH   1   2
ATOM      2  C   UNL     1      -4.367  -0.114   0.000  1.00  0.00     0.305 C 
ATOM      3  O   UNL     1      -4.758  -1.562   0.000  1.00  0.00    -0.252 OA
BRANCH   2   4
ATOM      4  O   UNL     1      -5.425   0.949   0.000  1.00  0.00    -0.469 OA
ATOM      5  C   UNL     1      -6.875   0.564   0.000  1.00  0.00     0.282 C 
ENDBRANCH   2   4
ENDBRANCH   1   2
BRANCH   1   6
ATOM      6  C   UNL     1      -1.859  -0.792   0.000  1.00  0.00     0.047 C 
BRANCH   6   7
ATOM      7  C   UNL     1      -0.409  -0.407   0.000  1.00  0.00    -0.040 A 
ATOM      8  C   UNL     1      -0.018   1.041   0.000  1.00  0.00     0.054 A 
ATOM      9  C   UNL     1       0.649  -1.470   0.000  1.00  0.00     0.054 A 
ATOM     10  C   UNL     1       1.432   1.426   0.000  1.00  0.00     0.164 A 
ATOM     11  C   UNL     1       2.099  -1.085   0.000  1.00  0.00     0.164 A 
ATOM     12  C   UNL     1       2.490   0.363   0.000  1.00  0.00     0.203 A 
BRANCH  10  13
ATOM     13  O   UNL     1       1.823   2.874   0.000  1.00  0.00    -0.493 OA
ATOM     14  C   UNL     1       3.273   3.259   0.000  1.00  0.00     0.278 C 
ENDBRANCH  10  13
BRANCH  11  15
ATOM     15  O   UNL     1       3.157  -2.148   0.000  1.00  0.00    -0.493 OA
ATOM     16  C   UNL     1       2.766  -3.596   0.000  1.00  0.00     0.278 C 
ENDBRANCH  11  15
BRANCH  12  17
ATOM     17  O   UNL     1       3.940   0.748   0.000  1.00  0.00    -0.490 OA
ATOM     18  C   UNL     1       4.998  -0.315   0.000  1.00  0.00     0.278 C 
ENDBRANCH  12  17
ENDBRANCH   6   7
ENDBRANCH   1   6
TORSDOF 7
