REMARK SMILES C[C@@H]1O[C@@H](O[C@H]2C(=O)c3c(O)cc(O)cc3O[C@H]2c2ccc(O)c(O)c2)[C@H](O)[C@H](O)[C@H]1O
REMARK SMILES IDX 6 1 7 2 8 3 9 4 10 5 12 6 13 7 15 8 16 9 17 10 18 11 5 12
REMARK SMILES IDX 4 13 2 14 3 15 31 16 29 17 27 18 1 19 32 20 30 22 28 24
REMARK SMILES IDX 19 26 20 27 26 28 21 29 24 30 22 31 25 32 23 34 11 36 14 38
REMARK H PARENT 32 21 30 23 28 25 25 33 23 35 11 37 14 39
ROOT
ATOM      1  C   UNL     1       0.343   0.295   0.000  1.00  0.00     0.238 C 
ATOM      2  C   UNL     1       1.133  -0.980   0.000  1.00  0.00     0.203 C 
ATOM      3  O   UNL     1       0.424  -2.302   0.000  1.00  0.00    -0.291 OA
ATOM      4  C   UNL     1       2.632  -0.933   0.000  1.00  0.00     0.105 A 
ATOM      5  C   UNL     1       3.422  -2.208   0.000  1.00  0.00     0.133 A 
ATOM      6  C   UNL     1       4.921  -2.161   0.000  1.00  0.00     0.093 A 
ATOM      7  C   UNL     1       5.630  -0.839   0.000  1.00  0.00     0.123 A 
ATOM      8  C   UNL     1       4.840   0.436   0.000  1.00  0.00     0.093 A 
ATOM      9  C   UNL     1       3.341   0.389   0.000  1.00  0.00     0.138 A 
ATOM     10  O   UNL     1       2.551   1.664   0.000  1.00  0.00    -0.481 OA
ATOM     11  C   UNL     1       1.052   1.617   0.000  1.00  0.00     0.240 C 
ENDROOT
BRANCH   1  12
ATOM     12  O   UNL     1      -1.157   0.248   0.000  1.00  0.00    -0.334 OA
BRANCH  12  13
ATOM     13  C   UNL     1      -1.866  -1.074   0.000  1.00  0.00     0.282 C 
ATOM     14  C   UNL     1      -1.785  -3.671   0.000  1.00  0.00     0.150 C 
ATOM     15  O   UNL     1      -1.076  -2.349   0.000  1.00  0.00    -0.344 OA
ATOM     16  C   UNL     1      -3.284  -3.717   0.000  1.00  0.00     0.174 C 
ATOM     17  C   UNL     1      -4.074  -2.442   0.000  1.00  0.00     0.179 C 
ATOM     18  C   UNL     1      -3.365  -1.121   0.000  1.00  0.00     0.202 C 
ATOM     19  C   UNL     1      -0.994  -4.946   0.000  1.00  0.00     0.041 C 
BRANCH  16  20
ATOM     20  O   UNL     1      -3.993  -5.039   0.000  1.00  0.00    -0.388 OA
ATOM     21  H   UNL     1       0.000   0.000   0.000  1.00  0.00     0.211 HD
ENDBRANCH  16  20
BRANCH  17  22
ATOM     22  O   UNL     1      -5.573  -2.489   0.000  1.00  0.00    -0.387 OA
ATOM     23  H   UNL     1       0.000   0.000   0.000  1.00  0.00     0.211 HD
ENDBRANCH  17  22
BRANCH  18  24
ATOM     24  O   UNL     1      -4.155   0.154   0.000  1.00  0.00    -0.385 OA
ATOM     25  H   UNL     1       0.000   0.000   0.000  1.00  0.00     0.211 HD
ENDBRANCH  18  24
ENDBRANCH  12  13
ENDBRANCH   1  12
BRANCH  11  26
ATOM     26  C   UNL     1       0.261   2.892   0.000  1.00  0.00    -0.001 A 
ATOM     27  C   UNL     1       0.970   4.214   0.000  1.00  0.00     0.012 A 
ATOM     28  C   UNL     1      -1.238   2.845   0.000  1.00  0.00     0.057 A 
ATOM     29  C   UNL     1       0.180   5.489   0.000  1.00  0.00     0.050 A 
ATOM     30  C   UNL     1      -2.028   4.120   0.000  1.00  0.00     0.157 A 
ATOM     31  C   UNL     1      -1.319   5.442   0.000  1.00  0.00     0.157 A 
BRANCH  30  32
ATOM     32  O   UNL     1      -3.527   4.073   0.000  1.00  0.00    -0.504 OA
ATOM     33  H   UNL     1       0.000   0.000   0.000  1.00  0.00     0.293 HD
ENDBRANCH  30  32
BRANCH  31  34
ATOM     34  O   UNL     1      -2.109   6.717   0.000  1.00  0.00    -0.504 OA
ATOM     35  H   UNL     1       0.000   0.000   0.000  1.00  0.00     0.293 HD
ENDBRANCH  31  34
ENDBRANCH  11  26
BRANCH   5  36
ATOM     36  O   UNL     1       2.713  -3.530   0.000  1.00  0.00    -0.507 OA
ATOM     37  H   UNL     1       0.000   0.000   0.000  1.00  0.00     0.293 HD
ENDBRANCH   5  36
BRANCH   7  38
ATOM     38  O   UNL     1       7.130  -0.792   0.000  1.00  0.00    -0.508 OA
ATOM     39  H   UNL     1       0.000   0.000   0.000  1.00  0.00     0.293 HD
ENDBRANCH   7  38
TORSDOF 10
