REMARK SMILES C=C(C)[C@@H]1CC[C@@]2(C)OC3=C(C[C@@H]12)C(=O)[C@]1(O)CO[C@H]3C1
REMARK SMILES IDX 4 1 5 2 6 3 7 4 8 5 9 6 10 7 11 8 12 9 13 10 14 11 15 12
REMARK SMILES IDX 16 13 18 14 19 15 20 16 21 17 2 18 1 19 3 20 17 21
REMARK H PARENT 17 22
ROOT
ATOM      1  C   UNL     1       3.128  -0.171   0.000  1.00  0.00     0.022 C 
ATOM      2  C   UNL     1       3.803   1.170   0.000  1.00  0.00     0.012 C 
ATOM      3  C   UNL     1       2.736   2.225   0.000  1.00  0.00     0.049 C 
ATOM      4  C   UNL     1       1.403   1.537   0.000  1.00  0.00     0.110 C 
ATOM      5  C   UNL     1       1.317   3.034   0.000  1.00  0.00     0.057 C 
ATOM      6  O   UNL     1       0.000   2.067   0.000  1.00  0.00    -0.488 OA
ATOM      7  C   UNL     1      -1.161   1.117   0.000  1.00  0.00     0.133 C 
ATOM      8  C   UNL     1      -0.918  -0.364   0.000  1.00  0.00     0.039 C 
ATOM      9  C   UNL     1       0.485  -0.894   0.000  1.00  0.00     0.051 C 
ATOM     10  C   UNL     1       1.646   0.056   0.000  1.00  0.00     0.045 C 
ATOM     11  C   UNL     1      -2.079  -1.314   0.000  1.00  0.00     0.196 C 
ATOM     12  O   UNL     1      -1.836  -2.794   0.000  1.00  0.00    -0.291 OA
ATOM     13  C   UNL     1      -3.482  -0.783   0.000  1.00  0.00     0.153 C 
ATOM     14  C   UNL     1      -4.653   0.154   0.000  1.00  0.00     0.205 C 
ATOM     15  O   UNL     1      -4.122   1.558   0.000  1.00  0.00    -0.367 OA
ATOM     16  C   UNL     1      -2.624   1.487   0.000  1.00  0.00     0.187 C 
ATOM     17  C   UNL     1      -2.228   0.040   0.000  1.00  0.00     0.086 C 
ENDROOT
BRANCH   1  18
ATOM     18  C   UNL     1       3.817  -1.503   0.000  1.00  0.00    -0.077 C 
ATOM     19  C   UNL     1       3.006  -2.766   0.000  1.00  0.00     0.008 C 
ATOM     20  C   UNL     1       5.315  -1.574   0.000  1.00  0.00     0.039 C 
ENDBRANCH   1  18
BRANCH  13  21
ATOM     21  O   UNL     1      -3.553  -2.282   0.000  1.00  0.00    -0.379 OA
ATOM     22  H   UNL     1       0.000   0.000   0.000  1.00  0.00     0.212 HD
ENDBRANCH  13  21
TORSDOF 2
