REMARK SMILES COc1cc2c(c(OC)c1OC)c(=O)c1cccc(OC)c1n2C
REMARK SMILES IDX 3 1 4 2 5 3 6 4 7 5 10 6 13 7 14 8 15 9 16 10 17 11 18 12
REMARK SMILES IDX 19 13 22 14 23 15 24 16 2 17 1 18 11 19 12 20 8 21 9 22
REMARK SMILES IDX 20 23 21 24
REMARK H PARENT
ROOT
ATOM      1  C   UNL     1      -2.748   1.320   0.000  1.00  0.00     0.166 A 
ATOM      2  C   UNL     1      -1.311   1.753   0.000  1.00  0.00     0.077 A 
ATOM      3  C   UNL     1      -0.219   0.726   0.000  1.00  0.00     0.060 A 
ATOM      4  C   UNL     1      -0.562  -0.735   0.000  1.00  0.00     0.092 A 
ATOM      5  C   UNL     1      -1.998  -1.167   0.000  1.00  0.00     0.177 A 
ATOM      6  C   UNL     1      -3.091  -0.140   0.000  1.00  0.00     0.204 A 
ATOM      7  C   UNL     1       0.531  -1.762   0.000  1.00  0.00     0.201 A 
ATOM      8  O   UNL     1       0.187  -3.222   0.000  1.00  0.00    -0.288 OA
ATOM      9  C   UNL     1       1.967  -1.329   0.000  1.00  0.00     0.050 A 
ATOM     10  C   UNL     1       3.060  -2.357   0.000  1.00  0.00     0.014 A 
ATOM     11  C   UNL     1       4.496  -1.924   0.000  1.00  0.00     0.005 A 
ATOM     12  C   UNL     1       4.840  -0.464   0.000  1.00  0.00     0.049 A 
ATOM     13  C   UNL     1       3.747   0.563   0.000  1.00  0.00     0.143 A 
ATOM     14  C   UNL     1       2.311   0.131   0.000  1.00  0.00     0.095 A 
ATOM     15  N   UNL     1       1.218   1.158   0.000  1.00  0.00    -0.340 N 
ATOM     16  C   UNL     1       1.561   2.618   0.000  1.00  0.00     0.150 C 
ENDROOT
BRANCH   1  17
ATOM     17  O   UNL     1      -3.840   2.348   0.000  1.00  0.00    -0.493 OA
ATOM     18  C   UNL     1      -3.497   3.808   0.000  1.00  0.00     0.278 C 
ENDBRANCH   1  17
BRANCH   6  19
ATOM     19  O   UNL     1      -4.527  -0.572   0.000  1.00  0.00    -0.490 OA
ATOM     20  C   UNL     1      -5.620   0.455   0.000  1.00  0.00     0.278 C 
ENDBRANCH   6  19
BRANCH   5  21
ATOM     21  O   UNL     1      -2.342  -2.627   0.000  1.00  0.00    -0.492 OA
ATOM     22  C   UNL     1      -3.778  -3.060   0.000  1.00  0.00     0.278 C 
ENDBRANCH   5  21
BRANCH  13  23
ATOM     23  O   UNL     1       4.090   2.023   0.000  1.00  0.00    -0.495 OA
ATOM     24  C   UNL     1       5.527   2.456   0.000  1.00  0.00     0.278 C 
ENDBRANCH  13  23
TORSDOF 4
