REMARK SMILES COc1cc(OC)c(-c2oc3cc(OC)c(OC)c(OC)c3c(=O)c2OC)cc1OC
REMARK SMILES IDX 9 1 25 2 23 3 24 4 22 5 19 6 16 7 13 8 12 9 11 10 10 11 8 12
REMARK SMILES IDX 3 13 4 14 29 15 5 16 28 17 2 18 1 19 30 20 31 21 6 22 7 23
REMARK SMILES IDX 26 24 27 25 20 26 21 27 14 28 15 29 17 30 18 31
REMARK H PARENT
ROOT
ATOM      1  C   UNL     1      -0.706  -0.152   0.000  1.00  0.00     0.184 A 
ATOM      2  C   UNL     1      -0.149  -1.545   0.000  1.00  0.00     0.211 A 
ATOM      3  C   UNL     1       1.336  -1.758   0.000  1.00  0.00     0.239 A 
ATOM      4  O   UNL     1       1.894  -3.151   0.000  1.00  0.00    -0.285 OA
ATOM      5  C   UNL     1       2.263  -0.579   0.000  1.00  0.00     0.115 A 
ATOM      6  C   UNL     1       3.748  -0.793   0.000  1.00  0.00     0.179 A 
ATOM      7  C   UNL     1       4.675   0.386   0.000  1.00  0.00     0.204 A 
ATOM      8  C   UNL     1       4.117   1.779   0.000  1.00  0.00     0.168 A 
ATOM      9  C   UNL     1       2.633   1.992   0.000  1.00  0.00     0.098 A 
ATOM     10  C   UNL     1       1.706   0.813   0.000  1.00  0.00     0.146 A 
ATOM     11  O   UNL     1       0.221   1.027   0.000  1.00  0.00    -0.451 OA
ENDROOT
BRANCH   1  12
ATOM     12  C   UNL     1      -2.191   0.061   0.000  1.00  0.00     0.067 A 
ATOM     13  C   UNL     1      -5.160   0.488   0.000  1.00  0.00     0.164 A 
ATOM     14  C   UNL     1      -4.233   1.667   0.000  1.00  0.00     0.097 A 
ATOM     15  C   UNL     1      -4.603  -0.905   0.000  1.00  0.00     0.161 A 
ATOM     16  C   UNL     1      -2.749   1.453   0.000  1.00  0.00     0.133 A 
ATOM     17  C   UNL     1      -3.118  -1.118   0.000  1.00  0.00     0.066 A 
BRANCH  13  18
ATOM     18  O   UNL     1      -6.645   0.701   0.000  1.00  0.00    -0.493 OA
ATOM     19  C   UNL     1      -7.203   2.094   0.000  1.00  0.00     0.278 C 
ENDBRANCH  13  18
BRANCH  15  20
ATOM     20  O   UNL     1      -5.530  -2.084   0.000  1.00  0.00    -0.493 OA
ATOM     21  C   UNL     1      -7.015  -1.871   0.000  1.00  0.00     0.278 C 
ENDBRANCH  15  20
BRANCH  16  22
ATOM     22  O   UNL     1      -1.821   2.632   0.000  1.00  0.00    -0.496 OA
ATOM     23  C   UNL     1      -2.379   4.025   0.000  1.00  0.00     0.278 C 
ENDBRANCH  16  22
ENDBRANCH   1  12
BRANCH   2  24
ATOM     24  O   UNL     1      -1.076  -2.724   0.000  1.00  0.00    -0.490 OA
ATOM     25  C   UNL     1      -2.561  -2.511   0.000  1.00  0.00     0.278 C 
ENDBRANCH   2  24
BRANCH   6  26
ATOM     26  O   UNL     1       4.306  -2.185   0.000  1.00  0.00    -0.492 OA
ATOM     27  C   UNL     1       5.790  -2.399   0.000  1.00  0.00     0.278 C 
ENDBRANCH   6  26
BRANCH   8  28
ATOM     28  O   UNL     1       5.045   2.958   0.000  1.00  0.00    -0.493 OA
ATOM     29  C   UNL     1       6.529   2.745   0.000  1.00  0.00     0.278 C 
ENDBRANCH   8  28
BRANCH   7  30
ATOM     30  O   UNL     1       6.160   0.173   0.000  1.00  0.00    -0.490 OA
ATOM     31  C   UNL     1       6.717  -1.220   0.000  1.00  0.00     0.278 C 
ENDBRANCH   7  30
TORSDOF 8
