REMARK SMILES CC(=O)Oc1cc(OC(C)=O)c2c(c1)OC(c1ccc(O)c(O)c1)[C@H](OC(C)=O)C2
REMARK SMILES IDX 5 1 6 2 7 3 12 4 30 5 25 6 16 7 15 8 13 9 14 10 4 11 2 12
REMARK SMILES IDX 1 13 3 14 8 15 9 16 10 17 11 18 17 19 18 20 24 21 19 22
REMARK SMILES IDX 22 23 20 24 23 25 21 27 26 29 27 30 28 31 29 32
REMARK H PARENT 23 26 21 28
ROOT
ATOM      1  C   UNL     1      -3.106  -1.898   0.000  1.00  0.00     0.138 A 
ATOM      2  C   UNL     1      -3.587  -0.477   0.000  1.00  0.00     0.095 A 
ATOM      3  C   UNL     1      -2.598   0.650   0.000  1.00  0.00     0.141 A 
ATOM      4  C   UNL     1      -1.127   0.357   0.000  1.00  0.00     0.041 A 
ATOM      5  C   UNL     1      -0.138   1.484   0.000  1.00  0.00     0.093 C 
ATOM      6  C   UNL     1       1.333   1.191   0.000  1.00  0.00     0.226 C 
ATOM      7  C   UNL     1       1.815  -0.229   0.000  1.00  0.00     0.245 C 
ATOM      8  O   UNL     1       0.826  -1.357   0.000  1.00  0.00    -0.481 OA
ATOM      9  C   UNL     1      -0.645  -1.064   0.000  1.00  0.00     0.131 A 
ATOM     10  C   UNL     1      -1.635  -2.191   0.000  1.00  0.00     0.094 A 
ENDROOT
BRANCH   1  11
ATOM     11  O   UNL     1      -4.095  -3.026   0.000  1.00  0.00    -0.426 OA
BRANCH  11  12
ATOM     12  C   UNL     1      -5.566  -2.732   0.000  1.00  0.00     0.308 C 
ATOM     13  C   UNL     1      -6.555  -3.860   0.000  1.00  0.00     0.139 C 
ATOM     14  O   UNL     1      -6.048  -1.312   0.000  1.00  0.00    -0.252 OA
ENDBRANCH  11  12
ENDBRANCH   1  11
BRANCH   3  15
ATOM     15  O   UNL     1      -3.080   2.071   0.000  1.00  0.00    -0.426 OA
BRANCH  15  16
ATOM     16  C   UNL     1      -4.551   2.364   0.000  1.00  0.00     0.308 C 
ATOM     17  C   UNL     1      -5.033   3.784   0.000  1.00  0.00     0.139 C 
ATOM     18  O   UNL     1      -5.540   1.236   0.000  1.00  0.00    -0.252 OA
ENDBRANCH  15  16
ENDBRANCH   3  15
BRANCH   7  19
ATOM     19  C   UNL     1       3.286  -0.522   0.000  1.00  0.00     0.000 A 
ATOM     20  C   UNL     1       4.276   0.605   0.000  1.00  0.00     0.012 A 
ATOM     21  C   UNL     1       3.768  -1.943   0.000  1.00  0.00     0.057 A 
ATOM     22  C   UNL     1       5.747   0.312   0.000  1.00  0.00     0.050 A 
ATOM     23  C   UNL     1       5.239  -2.236   0.000  1.00  0.00     0.157 A 
ATOM     24  C   UNL     1       6.229  -1.108   0.000  1.00  0.00     0.157 A 
BRANCH  23  25
ATOM     25  O   UNL     1       5.721  -3.656   0.000  1.00  0.00    -0.504 OA
ATOM     26  H   UNL     1       0.000   0.000   0.000  1.00  0.00     0.293 HD
ENDBRANCH  23  25
BRANCH  24  27
ATOM     27  O   UNL     1       7.700  -1.401   0.000  1.00  0.00    -0.504 OA
ATOM     28  H   UNL     1       0.000   0.000   0.000  1.00  0.00     0.293 HD
ENDBRANCH  24  27
ENDBRANCH   7  19
BRANCH   6  29
ATOM     29  O   UNL     1       2.323   2.319   0.000  1.00  0.00    -0.458 OA
BRANCH  29  30
ATOM     30  C   UNL     1       1.841   3.739   0.000  1.00  0.00     0.303 C 
ATOM     31  C   UNL     1       2.830   4.867   0.000  1.00  0.00     0.139 C 
ATOM     32  O   UNL     1       0.370   4.032   0.000  1.00  0.00    -0.253 OA
ENDBRANCH  29  30
ENDBRANCH   6  29
TORSDOF 9
