REMARK SMILES C=C(C)C1C[C@H](O)[C@]2(C)C(CCC3[C@@H]([C@@]4(C)O[C@@H](C(C)(C)O)CC4O)CC[C@]32C)[C@@]1(C)CCC(=O)O
REMARK SMILES IDX 4 1 5 2 6 3 8 4 9 5 10 6 11 7 12 8 13 9 14 10 26 11 27 12
REMARK SMILES IDX 28 13 29 14 30 15 31 16 2 17 1 18 3 19 32 20 33 21 34 22
REMARK SMILES IDX 35 23 36 24 7 26 15 28 17 29 24 30 18 31 23 32 16 33 25 34
REMARK SMILES IDX 19 36 20 37 21 38 22 39
REMARK H PARENT 36 25 7 27 25 35 22 40
ROOT
ATOM      1  C   UNL     1      -4.162  -0.990   0.000  1.00  0.00     0.023 C 
ATOM      2  C   UNL     1      -3.536  -2.353   0.000  1.00  0.00     0.041 C 
ATOM      3  C   UNL     1      -2.042  -2.492   0.000  1.00  0.00     0.121 C 
ATOM      4  C   UNL     1      -1.175  -1.268   0.000  1.00  0.00     0.002 C 
ATOM      5  C   UNL     1      -2.669  -1.129   0.000  1.00  0.00     0.015 C 
ATOM      6  C   UNL     1      -1.802   0.095   0.000  1.00  0.00     0.005 C 
ATOM      7  C   UNL     1      -0.935   1.319   0.000  1.00  0.00     0.005 C 
ATOM      8  C   UNL     1       0.559   1.180   0.000  1.00  0.00     0.005 C 
ATOM      9  C   UNL     1       1.185  -0.183   0.000  1.00  0.00     0.002 C 
ATOM     10  C   UNL     1       2.617  -0.629   0.000  1.00  0.00     0.027 C 
ATOM     11  C   UNL     1       2.635  -2.129   0.000  1.00  0.00     0.007 C 
ATOM     12  C   UNL     1       1.214  -2.610   0.000  1.00  0.00     0.008 C 
ATOM     13  C   UNL     1       0.318  -1.407   0.000  1.00  0.00    -0.021 C 
ATOM     14  C   UNL     1      -0.416  -2.715   0.000  1.00  0.00     0.012 C 
ATOM     15  C   UNL     1      -3.295   0.234   0.000  1.00  0.00    -0.022 C 
ATOM     16  C   UNL     1      -2.899   1.681   0.000  1.00  0.00     0.012 C 
ENDROOT
BRANCH   1  17
ATOM     17  C   UNL     1      -5.656  -0.851   0.000  1.00  0.00    -0.077 C 
ATOM     18  C   UNL     1      -6.523  -2.075   0.000  1.00  0.00     0.008 C 
ATOM     19  C   UNL     1      -6.282   0.512   0.000  1.00  0.00     0.039 C 
ENDBRANCH   1  17
BRANCH  15  20
ATOM     20  C   UNL     1      -4.651   0.875   0.000  1.00  0.00     0.019 C 
BRANCH  20  21
ATOM     21  C   UNL     1      -4.774   2.370   0.000  1.00  0.00     0.123 C 
BRANCH  21  22
ATOM     22  C   UNL     1      -6.130   3.012   0.000  1.00  0.00     0.303 C 
ATOM     23  O   UNL     1      -7.363   2.158   0.000  1.00  0.00    -0.252 OA
BRANCH  22  24
ATOM     24  O   UNL     1      -6.253   4.507   0.000  1.00  0.00    -0.481 OA
ATOM     25  H   UNL     1       0.000   0.000   0.000  1.00  0.00     0.296 HD
ENDBRANCH  22  24
ENDBRANCH  21  22
ENDBRANCH  20  21
ENDBRANCH  15  20
BRANCH   3  26
ATOM     26  O   UNL     1      -1.416  -3.855   0.000  1.00  0.00    -0.393 OA
ATOM     27  H   UNL     1       0.000   0.000   0.000  1.00  0.00     0.210 HD
ENDBRANCH   3  26
BRANCH  10  28
ATOM     28  C   UNL     1       3.820   0.267   0.000  1.00  0.00     0.095 C 
ATOM     29  O   UNL     1       4.811   1.394   0.000  1.00  0.00    -0.366 OA
ATOM     30  C   UNL     1       4.586  -1.023   0.000  1.00  0.00     0.149 C 
ATOM     31  C   UNL     1       6.188   0.800   0.000  1.00  0.00     0.153 C 
ATOM     32  C   UNL     1       6.049  -0.693   0.000  1.00  0.00     0.070 C 
ATOM     33  C   UNL     1       2.803   1.370   0.000  1.00  0.00     0.045 C 
BRANCH  30  34
ATOM     34  O   UNL     1       3.992  -2.400   0.000  1.00  0.00    -0.390 OA
ATOM     35  H   UNL     1       0.000   0.000   0.000  1.00  0.00     0.211 HD
ENDBRANCH  30  34
BRANCH  31  36
ATOM     36  C   UNL     1       7.478   1.566   0.000  1.00  0.00     0.085 C 
ATOM     37  C   UNL     1       6.712   2.856   0.000  1.00  0.00     0.044 C 
ATOM     38  C   UNL     1       8.243   0.276   0.000  1.00  0.00     0.044 C 
BRANCH  36  39
ATOM     39  O   UNL     1       8.768   2.331   0.000  1.00  0.00    -0.388 OA
ATOM     40  H   UNL     1       0.000   0.000   0.000  1.00  0.00     0.211 HD
ENDBRANCH  36  39
ENDBRANCH  31  36
ENDBRANCH  10  28
TORSDOF 10
