REMARK SMILES C=CCc1c(O)c(OC)cc2c1O[C@@H](c1cc(OC)c3c(c1)OCO3)[C@H]2C
REMARK SMILES IDX 4 1 5 2 7 3 10 4 11 5 12 6 13 7 14 8 26 9 27 10 3 11 2 12
REMARK SMILES IDX 1 13 6 14 8 16 9 17 15 18 16 19 22 20 17 21 21 22 20 23
REMARK SMILES IDX 23 24 25 25 24 26 18 27 19 28
REMARK H PARENT 6 15
ROOT
ATOM      1  C   UNL     1       3.257  -1.002   0.000  1.00  0.00     0.044 A 
ATOM      2  C   UNL     1       4.471  -0.120   0.000  1.00  0.00     0.165 A 
ATOM      3  C   UNL     1       4.314   1.372   0.000  1.00  0.00     0.161 A 
ATOM      4  C   UNL     1       2.943   1.982   0.000  1.00  0.00     0.058 A 
ATOM      5  C   UNL     1       1.730   1.100   0.000  1.00  0.00     0.005 A 
ATOM      6  C   UNL     1       1.887  -0.392   0.000  1.00  0.00     0.131 A 
ATOM      7  O   UNL     1       0.516  -1.002   0.000  1.00  0.00    -0.484 OA
ATOM      8  C   UNL     1      -0.487   0.112   0.000  1.00  0.00     0.211 C 
ATOM      9  C   UNL     1       0.263   1.411   0.000  1.00  0.00     0.066 C 
ATOM     10  C   UNL     1      -0.348   2.782   0.000  1.00  0.00     0.017 C 
ENDROOT
BRANCH   1  11
ATOM     11  C   UNL     1       3.414  -2.494   0.000  1.00  0.00     0.070 C 
BRANCH  11  12
ATOM     12  C   UNL     1       4.785  -3.104   0.000  1.00  0.00    -0.030 C 
ATOM     13  C   UNL     1       4.941  -4.596   0.000  1.00  0.00     0.004 C 
ENDBRANCH  11  12
ENDBRANCH   1  11
BRANCH   2  14
ATOM     14  O   UNL     1       5.841  -0.730   0.000  1.00  0.00    -0.504 OA
ATOM     15  H   UNL     1       0.000   0.000   0.000  1.00  0.00     0.293 HD
ENDBRANCH   2  14
BRANCH   3  16
ATOM     16  O   UNL     1       5.527   2.253   0.000  1.00  0.00    -0.493 OA
ATOM     17  C   UNL     1       5.370   3.745   0.000  1.00  0.00     0.278 C 
ENDBRANCH   3  16
BRANCH   8  18
ATOM     18  C   UNL     1      -1.979  -0.044   0.000  1.00  0.00     0.001 A 
ATOM     19  C   UNL     1      -2.861   1.169   0.000  1.00  0.00     0.058 A 
ATOM     20  C   UNL     1      -2.589  -1.415   0.000  1.00  0.00     0.058 A 
ATOM     21  C   UNL     1      -4.353   1.012   0.000  1.00  0.00     0.165 A 
ATOM     22  C   UNL     1      -4.081  -1.572   0.000  1.00  0.00     0.170 A 
ATOM     23  C   UNL     1      -4.963  -0.358   0.000  1.00  0.00     0.207 A 
ATOM     24  O   UNL     1      -4.962  -2.785   0.000  1.00  0.00    -0.453 OA
ATOM     25  O   UNL     1      -6.389  -0.822   0.000  1.00  0.00    -0.450 OA
ATOM     26  C   UNL     1      -6.389  -2.322   0.000  1.00  0.00     0.468 C 
BRANCH  21  27
ATOM     27  O   UNL     1      -5.234   2.225   0.000  1.00  0.00    -0.493 OA
ATOM     28  C   UNL     1      -4.624   3.596   0.000  1.00  0.00     0.278 C 
ENDBRANCH  21  27
ENDBRANCH   8  18
TORSDOF 6
