REMARK SMILES COC(=O)[C@@H](O)[C@H]1[C@@]2(C)C[C@]3(OC(C)=O)[C@@H]4C(O[C@]56CC(=O)O[C@@H](c7ccoc7)[C@]5(C)CC[C@H]([C@]13C)[C@]46O)[C@H]2O
REMARK SMILES IDX 7 1 8 2 9 3 10 4 11 5 16 6 17 7 18 8 19 9 20 10 21 11 22 12
REMARK SMILES IDX 23 13 24 14 30 15 31 16 32 17 33 18 34 19 35 20 36 21 37 22
REMARK SMILES IDX 39 23 5 24 3 25 4 26 2 27 1 28 6 29 40 31 12 33 13 34 14 35
REMARK SMILES IDX 15 36 38 37 25 39 29 40 26 41 28 42 27 43
REMARK H PARENT 6 30 40 32 38 38
ROOT
ATOM      1  C   UNL     1      -2.401  -0.847   0.000  1.00  0.00     0.048 C 
ATOM      2  C   UNL     1      -3.567  -1.790   0.000  1.00  0.00     0.006 C 
ATOM      3  C   UNL     1      -4.588  -2.889   0.000  1.00  0.00     0.015 C 
ATOM      4  C   UNL     1      -4.009  -0.356   0.000  1.00  0.00     0.059 C 
ATOM      5  C   UNL     1      -2.989   0.743   0.000  1.00  0.00     0.127 C 
ATOM      6  C   UNL     1      -1.526   0.409   0.000  1.00  0.00     0.101 C 
ATOM      7  C   UNL     1      -1.084  -1.025   0.000  1.00  0.00     0.158 C 
ATOM      8  O   UNL     1       0.415  -1.048   0.000  1.00  0.00    -0.364 OA
ATOM      9  C   UNL     1       0.900   0.372   0.000  1.00  0.00     0.118 C 
ATOM     10  C   UNL     1       0.721  -1.117   0.000  1.00  0.00     0.162 C 
ATOM     11  C   UNL     1       1.921  -2.017   0.000  1.00  0.00     0.309 C 
ATOM     12  O   UNL     1       1.742  -3.507   0.000  1.00  0.00    -0.252 OA
ATOM     13  O   UNL     1       3.300  -1.428   0.000  1.00  0.00    -0.457 OA
ATOM     14  C   UNL     1       3.480   0.061   0.000  1.00  0.00     0.219 C 
ATOM     15  C   UNL     1       2.280   0.961   0.000  1.00  0.00     0.042 C 
ATOM     16  C   UNL     1       3.659   1.550   0.000  1.00  0.00     0.019 C 
ATOM     17  C   UNL     1       2.459   2.450   0.000  1.00  0.00     0.014 C 
ATOM     18  C   UNL     1       1.259   3.350   0.000  1.00  0.00     0.008 C 
ATOM     19  C   UNL     1      -0.120   2.761   0.000  1.00  0.00     0.035 C 
ATOM     20  C   UNL     1      -2.503   2.162   0.000  1.00  0.00     0.020 C 
ATOM     21  C   UNL     1      -3.367   3.389   0.000  1.00  0.00     0.016 C 
ATOM     22  C   UNL     1      -0.299   1.272   0.000  1.00  0.00     0.108 C 
ATOM     23  C   UNL     1      -2.105  -2.124   0.000  1.00  0.00     0.150 C 
ENDROOT
BRANCH   1  24
ATOM     24  C   UNL     1      -0.952  -1.237   0.000  1.00  0.00     0.228 C 
BRANCH  24  25
ATOM     25  C   UNL     1      -0.566  -2.687   0.000  1.00  0.00     0.335 C 
ATOM     26  O   UNL     1      -1.490  -3.868   0.000  1.00  0.00    -0.249 OA
BRANCH  25  27
ATOM     27  O   UNL     1       0.883  -3.076   0.000  1.00  0.00    -0.467 OA
ATOM     28  C   UNL     1       1.270  -4.526   0.000  1.00  0.00     0.282 C 
ENDBRANCH  25  27
ENDBRANCH  24  25
BRANCH  24  29
ATOM     29  O   UNL     1       0.110  -0.178   0.000  1.00  0.00    -0.381 OA
ATOM     30  H   UNL     1       0.000   0.000   0.000  1.00  0.00     0.211 HD
ENDBRANCH  24  29
ENDBRANCH   1  24
BRANCH  23  31
ATOM     31  O   UNL     1      -1.841  -3.601   0.000  1.00  0.00    -0.390 OA
ATOM     32  H   UNL     1       0.000   0.000   0.000  1.00  0.00     0.211 HD
ENDBRANCH  23  31
BRANCH   5  33
ATOM     33  O   UNL     1      -3.430   2.176   0.000  1.00  0.00    -0.458 OA
BRANCH  33  34
ATOM     34  C   UNL     1      -4.893   2.510   0.000  1.00  0.00     0.303 C 
ATOM     35  C   UNL     1      -5.335   3.944   0.000  1.00  0.00     0.139 C 
ATOM     36  O   UNL     1      -5.913   1.411   0.000  1.00  0.00    -0.253 OA
ENDBRANCH  33  34
ENDBRANCH   5  33
BRANCH  22  37
ATOM     37  O   UNL     1      -1.587   2.042   0.000  1.00  0.00    -0.386 OA
ATOM     38  H   UNL     1       0.000   0.000   0.000  1.00  0.00     0.211 HD
ENDBRANCH  22  37
BRANCH  14  39
ATOM     39  C   UNL     1       4.859   0.650   0.000  1.00  0.00     0.031 A 
ATOM     40  C   UNL     1       5.194   2.113   0.000  1.00  0.00     0.202 A 
ATOM     41  C   UNL     1       6.147  -0.119   0.000  1.00  0.00     0.049 A 
ATOM     42  O   UNL     1       6.688   2.247   0.000  1.00  0.00    -0.472 OA
ATOM     43  C   UNL     1       7.277   0.867   0.000  1.00  0.00     0.195 A 
ENDBRANCH  14  39
TORSDOF 9
