REMARK SMILES COc1ccc2ccc(=O)oc2c1CC=C(C)C
REMARK SMILES IDX 14 1 13 2 3 3 4 4 5 5 12 6 6 7 11 8 7 9 9 10 8 11 10 12 2 13
REMARK SMILES IDX 1 14 15 15 16 16 17 17 18 18
REMARK H PARENT
ROOT
ATOM      1  C   UNL     1      -1.230   0.863   0.000  1.00  0.00     0.070 C 
ENDROOT
BRANCH   1   2
ATOM      2  C   UNL     1      -0.245  -0.268   0.000  1.00  0.00     0.041 A 
ATOM      3  C   UNL     1      -0.732  -1.687   0.000  1.00  0.00     0.126 A 
ATOM      4  C   UNL     1       0.254  -2.818   0.000  1.00  0.00     0.047 A 
ATOM      5  C   UNL     1       1.726  -2.531   0.000  1.00  0.00     0.016 A 
ATOM      6  C   UNL     1       1.227   0.019   0.000  1.00  0.00     0.145 A 
ATOM      7  C   UNL     1       2.213  -1.112   0.000  1.00  0.00     0.018 A 
ATOM      8  O   UNL     1       1.714   1.438   0.000  1.00  0.00    -0.422 OA
ATOM      9  C   UNL     1       3.685  -0.824   0.000  1.00  0.00     0.019 A 
ATOM     10  C   UNL     1       3.187   1.726   0.000  1.00  0.00     0.336 A 
ATOM     11  C   UNL     1       4.172   0.595   0.000  1.00  0.00     0.094 A 
ATOM     12  O   UNL     1       3.674   3.144   0.000  1.00  0.00    -0.246 OA
BRANCH   3  13
ATOM     13  O   UNL     1      -2.204  -1.975   0.000  1.00  0.00    -0.496 OA
ATOM     14  C   UNL     1      -2.691  -3.394   0.000  1.00  0.00     0.278 C 
ENDBRANCH   3  13
ENDBRANCH   1   2
BRANCH   1  15
ATOM     15  C   UNL     1      -2.702   0.575   0.000  1.00  0.00    -0.023 C 
BRANCH  15  16
ATOM     16  C   UNL     1      -3.687   1.706   0.000  1.00  0.00    -0.080 C 
ATOM     17  C   UNL     1      -5.160   1.418   0.000  1.00  0.00     0.039 C 
ATOM     18  C   UNL     1      -3.200   3.125   0.000  1.00  0.00     0.039 C 
ENDBRANCH  15  16
ENDBRANCH   1  15
TORSDOF 4
