REMARK SMILES COC(=O)CCc1cc(OC)c2c(c1OC)C=CC(C)(C)O2
REMARK SMILES IDX 5 1 3 2 4 3 2 4 1 5 6 6 7 7 8 8 14 9 9 10 13 11 12 12 17 13
REMARK SMILES IDX 22 14 18 15 19 16 20 17 21 18 15 19 16 20 10 21 11 22
REMARK H PARENT
ROOT
ATOM      1  C   UNL     1      -3.315   0.145   0.000  1.00  0.00     0.127 C 
ENDROOT
BRANCH   1   2
ATOM      2  C   UNL     1      -4.804  -0.030   0.000  1.00  0.00     0.305 C 
ATOM      3  O   UNL     1      -5.397  -1.408   0.000  1.00  0.00    -0.252 OA
BRANCH   2   4
ATOM      4  O   UNL     1      -5.701   1.173   0.000  1.00  0.00    -0.469 OA
ATOM      5  C   UNL     1      -7.191   0.998   0.000  1.00  0.00     0.282 C 
ENDBRANCH   2   4
ENDBRANCH   1   2
BRANCH   1   6
ATOM      6  C   UNL     1      -2.418  -1.057   0.000  1.00  0.00     0.051 C 
BRANCH   6   7
ATOM      7  C   UNL     1      -0.928  -0.882   0.000  1.00  0.00    -0.001 A 
ATOM      8  C   UNL     1      -0.032  -2.085   0.000  1.00  0.00     0.058 A 
ATOM      9  C   UNL     1      -0.335   0.496   0.000  1.00  0.00     0.133 A 
ATOM     10  C   UNL     1       1.458  -1.909   0.000  1.00  0.00     0.161 A 
ATOM     11  C   UNL     1       1.155   0.671   0.000  1.00  0.00     0.063 A 
ATOM     12  C   UNL     1       2.051  -0.532   0.000  1.00  0.00     0.173 A 
ATOM     13  C   UNL     1       1.748   2.049   0.000  1.00  0.00     0.016 C 
ATOM     14  O   UNL     1       3.541  -0.356   0.000  1.00  0.00    -0.479 OA
ATOM     15  C   UNL     1       3.237   2.224   0.000  1.00  0.00     0.021 C 
ATOM     16  C   UNL     1       4.134   1.021   0.000  1.00  0.00     0.122 C 
ATOM     17  C   UNL     1       5.163   2.113   0.000  1.00  0.00     0.061 C 
ATOM     18  C   UNL     1       5.388   0.198   0.000  1.00  0.00     0.061 C 
BRANCH   9  19
ATOM     19  O   UNL     1      -1.232   1.698   0.000  1.00  0.00    -0.496 OA
ATOM     20  C   UNL     1      -0.638   3.076   0.000  1.00  0.00     0.278 C 
ENDBRANCH   9  19
BRANCH  10  21
ATOM     21  O   UNL     1       2.355  -3.112   0.000  1.00  0.00    -0.493 OA
ATOM     22  C   UNL     1       1.762  -4.490   0.000  1.00  0.00     0.278 C 
ENDBRANCH  10  21
ENDBRANCH   6   7
ENDBRANCH   1   6
TORSDOF 6
