REMARK SMILES COc1ccc(-c2cc3cc(CCCO[C@@H]4O[C@H](CO)[C@@H](O)[C@H](O)[C@H]4O)cc(OC)c3o2)cc1OC
REMARK SMILES IDX 13 1 12 2 11 3 7 4 8 5 32 6 9 7 31 8 10 9 28 10 27 11 6 12
REMARK SMILES IDX 3 13 4 14 34 15 5 16 33 17 2 18 1 19 35 20 36 21 29 22 30 23
REMARK SMILES IDX 14 24 15 25 16 26 17 27 25 28 18 29 23 30 21 31 26 32 19 34
REMARK SMILES IDX 20 35 24 37 22 39
REMARK H PARENT 26 33 20 36 24 38 22 40
ROOT
ATOM      1  C   UNL     1      -2.769   0.234   0.000  1.00  0.00     0.033 C 
ENDROOT
BRANCH   1   2
ATOM      2  C   UNL     1      -1.613  -0.721   0.000  1.00  0.00     0.038 C 
BRANCH   2   3
ATOM      3  C   UNL     1      -0.207  -0.196   0.000  1.00  0.00    -0.043 A 
ATOM      4  C   UNL     1       4.756  -0.268   0.000  1.00  0.00     0.135 A 
ATOM      5  C   UNL     1       3.685  -1.319   0.000  1.00  0.00     0.060 A 
ATOM      6  O   UNL     1       4.087   1.075   0.000  1.00  0.00    -0.452 OA
ATOM      7  C   UNL     1       2.355  -0.626   0.000  1.00  0.00     0.025 A 
ATOM      8  C   UNL     1       2.603   0.853   0.000  1.00  0.00     0.176 A 
ATOM      9  C   UNL     1       0.950  -1.151   0.000  1.00  0.00     0.016 A 
ATOM     10  C   UNL     1       1.446   1.808   0.000  1.00  0.00     0.162 A 
ATOM     11  C   UNL     1       0.041   1.283   0.000  1.00  0.00     0.054 A 
BRANCH   4  12
ATOM     12  C   UNL     1       6.235  -0.516   0.000  1.00  0.00     0.021 A 
ATOM     13  C   UNL     1       9.194  -1.013   0.000  1.00  0.00     0.160 A 
ATOM     14  C   UNL     1       8.239  -2.170   0.000  1.00  0.00     0.051 A 
ATOM     15  C   UNL     1       8.669   0.392   0.000  1.00  0.00     0.161 A 
ATOM     16  C   UNL     1       6.760  -1.922   0.000  1.00  0.00     0.016 A 
ATOM     17  C   UNL     1       7.189   0.641   0.000  1.00  0.00     0.062 A 
BRANCH  13  18
ATOM     18  O   UNL     1      10.673  -1.261   0.000  1.00  0.00    -0.493 OA
ATOM     19  C   UNL     1      11.198  -2.666   0.000  1.00  0.00     0.278 C 
ENDBRANCH  13  18
BRANCH  15  20
ATOM     20  O   UNL     1       9.623   1.550   0.000  1.00  0.00    -0.493 OA
ATOM     21  C   UNL     1       9.099   2.955   0.000  1.00  0.00     0.278 C 
ENDBRANCH  15  20
ENDBRANCH   4  12
BRANCH  10  22
ATOM     22  O   UNL     1       1.694   3.287   0.000  1.00  0.00    -0.493 OA
ATOM     23  C   UNL     1       0.537   4.242   0.000  1.00  0.00     0.278 C 
ENDBRANCH  10  22
ENDBRANCH   2   3
ENDBRANCH   1   2
BRANCH   1  24
ATOM     24  C   UNL     1      -4.175  -0.291   0.000  1.00  0.00     0.164 C 
BRANCH  24  25
ATOM     25  O   UNL     1      -5.332   0.664   0.000  1.00  0.00    -0.350 OA
BRANCH  25  26
ATOM     26  C   UNL     1      -6.737   0.139   0.000  1.00  0.00     0.281 C 
ATOM     27  O   UNL     1      -7.894   1.093   0.000  1.00  0.00    -0.341 OA
ATOM     28  C   UNL     1      -6.985  -1.340   0.000  1.00  0.00     0.202 C 
ATOM     29  C   UNL     1      -9.299   0.569   0.000  1.00  0.00     0.178 C 
ATOM     30  C   UNL     1      -8.390  -1.865   0.000  1.00  0.00     0.179 C 
ATOM     31  C   UNL     1      -9.547  -0.910   0.000  1.00  0.00     0.177 C 
BRANCH  28  32
ATOM     32  O   UNL     1      -5.828  -2.295   0.000  1.00  0.00    -0.385 OA
ATOM     33  H   UNL     1       0.000   0.000   0.000  1.00  0.00     0.211 HD
ENDBRANCH  28  32
BRANCH  29  34
ATOM     34  C   UNL     1     -10.456   1.523   0.000  1.00  0.00     0.191 C 
BRANCH  34  35
ATOM     35  O   UNL     1     -10.208   3.003   0.000  1.00  0.00    -0.394 OA
ATOM     36  H   UNL     1       0.000   0.000   0.000  1.00  0.00     0.210 HD
ENDBRANCH  34  35
ENDBRANCH  29  34
BRANCH  30  37
ATOM     37  O   UNL     1      -8.639  -3.344   0.000  1.00  0.00    -0.387 OA
ATOM     38  H   UNL     1       0.000   0.000   0.000  1.00  0.00     0.211 HD
ENDBRANCH  30  37
BRANCH  31  39
ATOM     39  O   UNL     1     -10.953  -1.435   0.000  1.00  0.00    -0.387 OA
ATOM     40  H   UNL     1       0.000   0.000   0.000  1.00  0.00     0.211 HD
ENDBRANCH  31  39
ENDBRANCH  25  26
ENDBRANCH  24  25
ENDBRANCH   1  24
TORSDOF 14
