REMARK SMILES O=c1c(O[C@H]2O[C@H](CO)[C@@H](O)[C@H](O)[C@H]2O[C@@H]2O[C@H](CO)[C@@H](O)[C@H](O)[C@H]2O)c(-c2ccc(O)c(O)c2)oc2cc(O)cc(O)c12
REMARK SMILES IDX 5 1 6 2 7 3 10 4 12 5 14 6 4 7 3 8 2 9 44 10 27 11 42 12
REMARK SMILES IDX 37 13 36 14 41 15 38 16 39 17 1 18 28 19 29 20 35 21 30 22
REMARK SMILES IDX 33 23 31 24 34 25 32 27 43 29 40 31 15 33 16 34 17 35 25 36
REMARK SMILES IDX 18 37 23 38 21 39 26 40 19 42 20 43 24 45 22 47 8 49 9 50
REMARK SMILES IDX 13 52 11 54
REMARK H PARENT 34 26 32 28 43 30 40 32 26 41 20 44 24 46 22 48 9 51 13 53
REMARK H PARENT 11 55
ROOT
ATOM      1  C   UNL     1      -0.044   1.003   0.000  1.00  0.00     0.340 C 
ATOM      2  O   UNL     1       0.648   2.333   0.000  1.00  0.00    -0.332 OA
ATOM      3  C   UNL     1      -0.158   3.598   0.000  1.00  0.00     0.179 C 
ATOM      4  C   UNL     1      -1.657   3.533   0.000  1.00  0.00     0.177 C 
ATOM      5  C   UNL     1      -2.349   2.202   0.000  1.00  0.00     0.181 C 
ATOM      6  C   UNL     1      -1.543   0.937   0.000  1.00  0.00     0.221 C 
ENDROOT
BRANCH   1   7
ATOM      7  O   UNL     1       0.762  -0.262   0.000  1.00  0.00    -0.454 OA
BRANCH   7   8
ATOM      8  C   UNL     1       2.261  -0.196   0.000  1.00  0.00     0.214 A 
ATOM      9  C   UNL     1       2.953   1.135   0.000  1.00  0.00     0.239 A 
ATOM     10  C   UNL     1       4.452   1.200   0.000  1.00  0.00     0.111 A 
ATOM     11  C   UNL     1       3.067  -1.461   0.000  1.00  0.00     0.180 A 
ATOM     12  C   UNL     1       5.144   2.531   0.000  1.00  0.00     0.134 A 
ATOM     13  C   UNL     1       5.258  -0.065   0.000  1.00  0.00     0.146 A 
ATOM     14  O   UNL     1       4.566  -1.395   0.000  1.00  0.00    -0.452 OA
ATOM     15  C   UNL     1       6.642   2.597   0.000  1.00  0.00     0.093 A 
ATOM     16  C   UNL     1       6.756   0.001   0.000  1.00  0.00     0.094 A 
ATOM     17  C   UNL     1       7.449   1.332   0.000  1.00  0.00     0.123 A 
ATOM     18  O   UNL     1       2.147   2.399   0.000  1.00  0.00    -0.285 OA
BRANCH  11  19
ATOM     19  C   UNL     1       2.375  -2.792   0.000  1.00  0.00     0.025 A 
ATOM     20  C   UNL     1       0.876  -2.858   0.000  1.00  0.00     0.016 A 
ATOM     21  C   UNL     1       3.181  -4.057   0.000  1.00  0.00     0.062 A 
ATOM     22  C   UNL     1       0.184  -4.188   0.000  1.00  0.00     0.051 A 
ATOM     23  C   UNL     1       2.489  -5.387   0.000  1.00  0.00     0.158 A 
ATOM     24  C   UNL     1       0.990  -5.453   0.000  1.00  0.00     0.157 A 
BRANCH  23  25
ATOM     25  O   UNL     1       3.295  -6.652   0.000  1.00  0.00    -0.504 OA
ATOM     26  H   UNL     1       0.000   0.000   0.000  1.00  0.00     0.293 HD
ENDBRANCH  23  25
BRANCH  24  27
ATOM     27  O   UNL     1       0.298  -6.784   0.000  1.00  0.00    -0.504 OA
ATOM     28  H   UNL     1       0.000   0.000   0.000  1.00  0.00     0.293 HD
ENDBRANCH  24  27
ENDBRANCH  11  19
BRANCH  12  29
ATOM     29  O   UNL     1       4.338   3.796   0.000  1.00  0.00    -0.507 OA
ATOM     30  H   UNL     1       0.000   0.000   0.000  1.00  0.00     0.293 HD
ENDBRANCH  12  29
BRANCH  17  31
ATOM     31  O   UNL     1       8.947   1.398   0.000  1.00  0.00    -0.508 OA
ATOM     32  H   UNL     1       0.000   0.000   0.000  1.00  0.00     0.293 HD
ENDBRANCH  17  31
ENDBRANCH   7   8
ENDBRANCH   1   7
BRANCH   6  33
ATOM     33  O   UNL     1      -2.235  -0.394   0.000  1.00  0.00    -0.337 OA
BRANCH  33  34
ATOM     34  C   UNL     1      -3.733  -0.460   0.000  1.00  0.00     0.282 C 
ATOM     35  O   UNL     1      -4.540   0.805   0.000  1.00  0.00    -0.341 OA
ATOM     36  C   UNL     1      -4.426  -1.790   0.000  1.00  0.00     0.202 C 
ATOM     37  C   UNL     1      -6.038   0.739   0.000  1.00  0.00     0.178 C 
ATOM     38  C   UNL     1      -5.924  -1.856   0.000  1.00  0.00     0.179 C 
ATOM     39  C   UNL     1      -6.731  -0.591   0.000  1.00  0.00     0.177 C 
BRANCH  36  40
ATOM     40  O   UNL     1      -3.619  -3.055   0.000  1.00  0.00    -0.385 OA
ATOM     41  H   UNL     1       0.000   0.000   0.000  1.00  0.00     0.211 HD
ENDBRANCH  36  40
BRANCH  37  42
ATOM     42  C   UNL     1      -6.845   2.004   0.000  1.00  0.00     0.191 C 
BRANCH  42  43
ATOM     43  O   UNL     1      -8.343   1.938   0.000  1.00  0.00    -0.394 OA
ATOM     44  H   UNL     1       0.000   0.000   0.000  1.00  0.00     0.210 HD
ENDBRANCH  42  43
ENDBRANCH  37  42
BRANCH  38  45
ATOM     45  O   UNL     1      -6.617  -3.187   0.000  1.00  0.00    -0.387 OA
ATOM     46  H   UNL     1       0.000   0.000   0.000  1.00  0.00     0.211 HD
ENDBRANCH  38  45
BRANCH  39  47
ATOM     47  O   UNL     1      -8.229  -0.657   0.000  1.00  0.00    -0.387 OA
ATOM     48  H   UNL     1       0.000   0.000   0.000  1.00  0.00     0.211 HD
ENDBRANCH  39  47
ENDBRANCH  33  34
ENDBRANCH   6  33
BRANCH   3  49
ATOM     49  C   UNL     1       0.534   4.929   0.000  1.00  0.00     0.191 C 
BRANCH  49  50
ATOM     50  O   UNL     1      -0.272   6.194   0.000  1.00  0.00    -0.394 OA
ATOM     51  H   UNL     1       0.000   0.000   0.000  1.00  0.00     0.210 HD
ENDBRANCH  49  50
ENDBRANCH   3  49
BRANCH   5  52
ATOM     52  O   UNL     1      -3.848   2.136   0.000  1.00  0.00    -0.387 OA
ATOM     53  H   UNL     1       0.000   0.000   0.000  1.00  0.00     0.211 HD
ENDBRANCH   5  52
BRANCH   4  54
ATOM     54  O   UNL     1      -2.463   4.797   0.000  1.00  0.00    -0.387 OA
ATOM     55  H   UNL     1       0.000   0.000   0.000  1.00  0.00     0.211 HD
ENDBRANCH   4  54
TORSDOF 18
