REMARK SMILES CC(=O)OC(C)=CCC[C@H](C)[C@@H]1CC[C@@]2(C)C3=CC[C@H]4C(C)(C)C(=O)CC[C@]4(C)[C@H]3CC[C@@]12C
REMARK SMILES IDX 7 1 5 2 6 3 4 4 2 5 1 6 3 7 8 8 9 9 10 10 11 11 12 12 13 13
REMARK SMILES IDX 33 14 14 15 32 16 15 17 31 18 17 19 30 20 18 21 28 22 19 23
REMARK SMILES IDX 27 24 20 25 26 26 21 27 24 28 34 29 16 30 29 31 22 32 23 33
REMARK SMILES IDX 25 34
REMARK H PARENT
ROOT
ATOM      1  C   UNL     1       5.120  -1.376   0.000  1.00  0.00     0.015 C 
ENDROOT
BRANCH   1   2
ATOM      2  C   UNL     1       6.577  -1.733   0.000  1.00  0.00     0.100 C 
ATOM      3  C   UNL     1       6.996  -3.173   0.000  1.00  0.00     0.087 C 
BRANCH   2   4
ATOM      4  O   UNL     1       7.614  -0.649   0.000  1.00  0.00    -0.432 OA
BRANCH   4   5
ATOM      5  C   UNL     1       9.071  -1.006   0.000  1.00  0.00     0.307 C 
ATOM      6  C   UNL     1      10.109   0.077   0.000  1.00  0.00     0.139 C 
ATOM      7  O   UNL     1       9.491  -2.446   0.000  1.00  0.00    -0.252 OA
ENDBRANCH   4   5
ENDBRANCH   2   4
ENDBRANCH   1   2
BRANCH   1   8
ATOM      8  C   UNL     1       4.700   0.064   0.000  1.00  0.00     0.031 C 
BRANCH   8   9
ATOM      9  C   UNL     1       3.243   0.421   0.000  1.00  0.00     0.008 C 
BRANCH   9  10
ATOM     10  C   UNL     1       2.824   1.861   0.000  1.00  0.00    -0.010 C 
ATOM     11  C   UNL     1       3.861   2.944   0.000  1.00  0.00     0.008 C 
BRANCH  10  12
ATOM     12  C   UNL     1       1.367   2.218   0.000  1.00  0.00    -0.001 C 
ATOM     13  C   UNL     1       0.799   3.606   0.000  1.00  0.00     0.005 C 
ATOM     14  C   UNL     1       0.222   1.249   0.000  1.00  0.00    -0.020 C 
ATOM     15  C   UNL     1      -0.697   3.495   0.000  1.00  0.00     0.012 C 
ATOM     16  C   UNL     1       0.176  -0.251   0.000  1.00  0.00     0.008 C 
ATOM     17  C   UNL     1      -1.054   2.038   0.000  1.00  0.00    -0.006 C 
ATOM     18  C   UNL     1      -1.146  -0.960   0.000  1.00  0.00     0.009 C 
ATOM     19  C   UNL     1      -2.375   1.328   0.000  1.00  0.00    -0.064 C 
ATOM     20  C   UNL     1      -2.421  -0.171   0.000  1.00  0.00     0.021 C 
ATOM     21  C   UNL     1      -3.650   2.118   0.000  1.00  0.00    -0.027 C 
ATOM     22  C   UNL     1      -3.742  -0.881   0.000  1.00  0.00    -0.022 C 
ATOM     23  C   UNL     1      -4.972   1.408   0.000  1.00  0.00     0.032 C 
ATOM     24  C   UNL     1      -3.788  -2.380   0.000  1.00  0.00     0.015 C 
ATOM     25  C   UNL     1      -5.018  -0.091   0.000  1.00  0.00     0.012 C 
ATOM     26  C   UNL     1      -5.110  -3.090   0.000  1.00  0.00     0.077 C 
ATOM     27  C   UNL     1      -6.339  -0.801   0.000  1.00  0.00     0.027 C 
ATOM     28  C   UNL     1      -6.385  -2.300   0.000  1.00  0.00     0.138 C 
ATOM     29  C   UNL     1       1.573   0.597   0.000  1.00  0.00     0.012 C 
ATOM     30  C   UNL     1      -2.240   2.957   0.000  1.00  0.00     0.017 C 
ATOM     31  C   UNL     1      -2.467  -1.670   0.000  1.00  0.00     0.012 C 
ATOM     32  C   UNL     1      -7.824  -1.016   0.000  1.00  0.00     0.020 C 
ATOM     33  C   UNL     1      -6.809   0.624   0.000  1.00  0.00     0.020 C 
ATOM     34  O   UNL     1      -7.707  -3.010   0.000  1.00  0.00    -0.299 OA
ENDBRANCH  10  12
ENDBRANCH   9  10
ENDBRANCH   8   9
ENDBRANCH   1   8
TORSDOF 7
