REMARK SMILES C[C@@H]1CC[C@@]2(O)[C@@H]1[C@H]1[C@@H](CC[C@@H]2C)C1(C)C
REMARK SMILES IDX 1 1 2 2 3 3 4 4 5 5 7 6 8 7 9 8 14 9 15 10 16 11 10 12 6 14
REMARK SMILES IDX 12 16 13 17 11 18
REMARK H PARENT 6 15
REMARK Flexibility Score:    5.900
ROOT
ATOM      1  C   UNL     1      -0.719  -3.314   0.000  1.00  0.00     0.008 C 
ATOM      2  C   UNL     1       0.331  -2.243   0.000  1.00  0.00    -0.008 C 
ATOM      3  C   UNL     1       1.815  -2.462   0.000  1.00  0.00     0.007 C 
ATOM      4  C   UNL     1       2.482  -1.119   0.000  1.00  0.00     0.036 C 
ATOM      5  C   UNL     1       1.411  -0.069   0.000  1.00  0.00     0.071 C 
ATOM      6  C   UNL     1       0.082  -0.763   0.000  1.00  0.00     0.028 C 
ENDROOT
BRANCH   6   7
ATOM      7  C   UNL     1      -1.290  -0.157   0.000  1.00  0.00     0.005 C 
ATOM      8  C   UNL     1      -1.672   1.294   0.000  1.00  0.00    -0.001 C 
ATOM      9  C   UNL     1      -2.737   0.238   0.000  1.00  0.00    -0.029 C 
ATOM     10  C   UNL     1      -3.962   1.105   0.000  1.00  0.00     0.011 C 
ATOM     11  C   UNL     1      -3.378  -1.118   0.000  1.00  0.00     0.011 C 
BRANCH   8  12
ATOM     12  C   UNL     1      -0.775   2.497   0.000  1.00  0.00     0.005 CG0
ATOM     13  G   UNL     1       0.724   2.545   0.000  1.00  0.00     0.000 G0
ENDBRANCH   8  12
ENDBRANCH   6   7
BRANCH   5  14
ATOM     14  O   UNL     1       2.843   0.377   0.000  1.00  0.00    -0.389 OA
ATOM     15  H   UNL     1       0.000   0.000   0.000  1.00  0.00     0.211 HD
ENDBRANCH   5  14
BRANCH   5  16
ATOM     16  C   UNL     1       1.697   1.403   0.000  1.00  0.00     0.018 C 
ATOM     17  C   UNL     1       3.148   1.785   0.000  1.00  0.00     0.011 C 
BRANCH  16  18
ATOM     18  C   UNL     1       0.724   2.545   0.000  1.00  0.00     0.006 CG0
ATOM     19  G   UNL     1      -0.775   2.497   0.000  1.00  0.00     0.000 G0
ENDBRANCH  16  18
ENDBRANCH   5  16
TORSDOF 1
