REMARK SMILES C=CC[C@]12CC(=O)[C@@H](O)[C@@H](C1O)[C@H](c1ccc3c(c1)OCO3)[C@H]2C
REMARK SMILES IDX 4 1 5 2 6 3 7 4 8 5 10 6 11 7 13 8 23 9 24 10 3 11 2 12 1 13
REMARK SMILES IDX 12 14 14 16 15 17 19 18 16 19 18 20 17 21 20 22 22 23 21 24
REMARK SMILES IDX 9 25
REMARK H PARENT 12 15 9 26
ROOT
ATOM      1  C   UNL     1       2.437   0.630   0.000  1.00  0.00     0.010 C 
ATOM      2  C   UNL     1       3.724  -0.140   0.000  1.00  0.00     0.088 C 
ATOM      3  C   UNL     1       3.701  -1.639   0.000  1.00  0.00     0.162 C 
ATOM      4  O   UNL     1       4.989  -2.409   0.000  1.00  0.00    -0.297 OA
ATOM      5  C   UNL     1       2.391  -2.369   0.000  1.00  0.00     0.187 C 
ATOM      6  C   UNL     1       1.104  -1.600   0.000  1.00  0.00     0.062 C 
ATOM      7  C   UNL     1       1.127  -0.100   0.000  1.00  0.00     0.128 C 
ATOM      8  C   UNL     1       0.205  -0.323   0.000  1.00  0.00     0.031 C 
ATOM      9  C   UNL     1       0.975   0.964   0.000  1.00  0.00     0.003 C 
ATOM     10  C   UNL     1       0.385   2.344   0.000  1.00  0.00     0.009 C 
ENDROOT
BRANCH   1  11
ATOM     11  C   UNL     1       2.460   2.130   0.000  1.00  0.00     0.037 C 
BRANCH  11  12
ATOM     12  C   UNL     1       3.770   2.860   0.000  1.00  0.00    -0.034 C 
ATOM     13  C   UNL     1       3.793   4.360   0.000  1.00  0.00     0.004 C 
ENDBRANCH  11  12
ENDBRANCH   1  11
BRANCH   7  14
ATOM     14  O   UNL     1      -0.161   0.670   0.000  1.00  0.00    -0.392 OA
ATOM     15  H   UNL     1       0.000   0.000   0.000  1.00  0.00     0.210 HD
ENDBRANCH   7  14
BRANCH   8  16
ATOM     16  C   UNL     1      -1.289  -0.457   0.000  1.00  0.00    -0.040 A 
ATOM     17  C   UNL     1      -1.920  -1.818   0.000  1.00  0.00     0.008 A 
ATOM     18  C   UNL     1      -2.152   0.770   0.000  1.00  0.00     0.054 A 
ATOM     19  C   UNL     1      -3.414  -1.952   0.000  1.00  0.00     0.051 A 
ATOM     20  C   UNL     1      -3.646   0.636   0.000  1.00  0.00     0.166 A 
ATOM     21  C   UNL     1      -4.277  -0.725   0.000  1.00  0.00     0.165 A 
ATOM     22  O   UNL     1      -4.746   1.656   0.000  1.00  0.00    -0.454 OA
ATOM     23  O   UNL     1      -5.766  -0.546   0.000  1.00  0.00    -0.454 OA
ATOM     24  C   UNL     1      -6.056   0.926   0.000  1.00  0.00     0.468 C 
ENDBRANCH   8  16
BRANCH   5  25
ATOM     25  O   UNL     1       2.368  -3.869   0.000  1.00  0.00    -0.385 OA
ATOM     26  H   UNL     1       0.000   0.000   0.000  1.00  0.00     0.211 HD
ENDBRANCH   5  25
TORSDOF 5
