REMARK SMILES CC(C)CNC(=O)C=Cc1ccc2c(c1)OCO2
REMARK SMILES IDX 5 1 6 2 7 3 4 5 2 6 1 7 3 8 8 9 9 10 10 11 11 12 15 13 12 14
REMARK SMILES IDX 14 15 13 16 16 17 18 18 17 19
REMARK H PARENT 5 4
ROOT
ATOM      1  N   UNL     1       3.677  -0.205   0.000  1.00  0.00    -0.352 N 
ATOM      2  C   UNL     1       2.460   0.672   0.000  1.00  0.00     0.244 C 
ATOM      3  O   UNL     1       2.611   2.164   0.000  1.00  0.00    -0.270 OA
ATOM      4  H   UNL     1       0.000   0.000   0.000  1.00  0.00     0.163 HD
ENDROOT
BRANCH   1   5
ATOM      5  C   UNL     1       5.045   0.410   0.000  1.00  0.00     0.119 C 
BRANCH   5   6
ATOM      6  C   UNL     1       6.262  -0.467   0.000  1.00  0.00     0.002 C 
ATOM      7  C   UNL     1       7.630   0.148   0.000  1.00  0.00     0.009 C 
ATOM      8  C   UNL     1       6.110  -1.959   0.000  1.00  0.00     0.009 C 
ENDBRANCH   5   6
ENDBRANCH   1   5
BRANCH   2   9
ATOM      9  C   UNL     1       1.092   0.057   0.000  1.00  0.00     0.072 C 
BRANCH   9  10
ATOM     10  C   UNL     1      -0.125   0.934   0.000  1.00  0.00     0.014 C 
BRANCH  10  11
ATOM     11  C   UNL     1      -1.493   0.319   0.000  1.00  0.00    -0.022 A 
ATOM     12  C   UNL     1      -1.644  -1.174   0.000  1.00  0.00     0.012 A 
ATOM     13  C   UNL     1      -2.710   1.196   0.000  1.00  0.00     0.058 A 
ATOM     14  C   UNL     1      -3.012  -1.789   0.000  1.00  0.00     0.051 A 
ATOM     15  C   UNL     1      -4.078   0.581   0.000  1.00  0.00     0.166 A 
ATOM     16  C   UNL     1      -4.229  -0.912   0.000  1.00  0.00     0.165 A 
ATOM     17  O   UNL     1      -5.450   1.186   0.000  1.00  0.00    -0.454 OA
ATOM     18  O   UNL     1      -5.695  -1.229   0.000  1.00  0.00    -0.454 OA
ATOM     19  C   UNL     1      -6.450   0.067   0.000  1.00  0.00     0.468 C 
ENDBRANCH  10  11
ENDBRANCH   9  10
ENDBRANCH   2   9
TORSDOF 5
