REMARK SMILES COc1cc(C)c2c(=O)c3c(OC(C)=O)cc(OC)cc3oc2c1
REMARK SMILES IDX 3 1 4 2 5 3 6 4 7 5 8 6 9 7 10 8 11 9 16 10 17 11 20 12
REMARK SMILES IDX 21 13 22 14 23 15 24 16 2 17 1 18 12 19 13 20 14 21 15 22
REMARK SMILES IDX 18 23 19 24
REMARK H PARENT
ROOT
ATOM      1  C   UNL     1      -4.551  -0.563   0.000  1.00  0.00     0.122 A 
ATOM      2  C   UNL     1      -4.291   0.914   0.000  1.00  0.00     0.050 A 
ATOM      3  C   UNL     1      -2.881   1.427   0.000  1.00  0.00    -0.032 A 
ATOM      4  C   UNL     1      -2.621   2.905   0.000  1.00  0.00     0.045 C 
ATOM      5  C   UNL     1      -1.732   0.464   0.000  1.00  0.00     0.069 A 
ATOM      6  C   UNL     1      -0.323   0.977   0.000  1.00  0.00     0.204 A 
ATOM      7  O   UNL     1      -0.062   2.454   0.000  1.00  0.00    -0.288 OA
ATOM      8  C   UNL     1       0.827   0.013   0.000  1.00  0.00     0.108 A 
ATOM      9  C   UNL     1       2.236   0.526   0.000  1.00  0.00     0.149 A 
ATOM     10  C   UNL     1       3.385  -0.437   0.000  1.00  0.00     0.094 A 
ATOM     11  C   UNL     1       3.125  -1.915   0.000  1.00  0.00     0.126 A 
ATOM     12  C   UNL     1       1.716  -2.428   0.000  1.00  0.00     0.094 A 
ATOM     13  C   UNL     1       0.567  -1.464   0.000  1.00  0.00     0.146 A 
ATOM     14  O   UNL     1      -0.843  -1.978   0.000  1.00  0.00    -0.455 OA
ATOM     15  C   UNL     1      -1.992  -1.014   0.000  1.00  0.00     0.142 A 
ATOM     16  C   UNL     1      -3.401  -1.527   0.000  1.00  0.00     0.094 A 
ENDROOT
BRANCH   1  17
ATOM     17  O   UNL     1      -5.960  -1.077   0.000  1.00  0.00    -0.497 OA
ATOM     18  C   UNL     1      -7.110  -0.113   0.000  1.00  0.00     0.278 C 
ENDBRANCH   1  17
BRANCH   9  19
ATOM     19  O   UNL     1       2.496   2.004   0.000  1.00  0.00    -0.426 OA
BRANCH  19  20
ATOM     20  C   UNL     1       3.906   2.517   0.000  1.00  0.00     0.308 C 
ATOM     21  C   UNL     1       4.166   3.994   0.000  1.00  0.00     0.139 C 
ATOM     22  O   UNL     1       5.055   1.553   0.000  1.00  0.00    -0.252 OA
ENDBRANCH  19  20
ENDBRANCH   9  19
BRANCH  11  23
ATOM     23  O   UNL     1       4.275  -2.879   0.000  1.00  0.00    -0.496 OA
ATOM     24  C   UNL     1       4.014  -4.356   0.000  1.00  0.00     0.278 C 
ENDBRANCH  11  23
TORSDOF 4
