REMARK SMILES COc1cc(O)c2c(c1C)C[C@@H](C)OC2=O
REMARK SMILES IDX 3 1 4 2 5 3 7 4 15 5 16 6 14 7 12 8 13 9 11 10 8 11 9 12
REMARK SMILES IDX 10 13 2 14 1 15 6 16
REMARK H PARENT 6 17
ROOT
ATOM      1  C   UNL     1      -2.272   0.372   0.000  1.00  0.00     0.125 A 
ATOM      2  C   UNL     1      -2.051  -1.111   0.000  1.00  0.00     0.093 A 
ATOM      3  C   UNL     1      -0.655  -1.662   0.000  1.00  0.00     0.134 A 
ATOM      4  C   UNL     1       0.519  -0.728   0.000  1.00  0.00     0.105 A 
ATOM      5  C   UNL     1       1.914  -1.279   0.000  1.00  0.00     0.342 C 
ATOM      6  O   UNL     1       2.135  -2.762   0.000  1.00  0.00    -0.246 OA
ATOM      7  O   UNL     1       3.089  -0.345   0.000  1.00  0.00    -0.459 OA
ATOM      8  C   UNL     1       2.868   1.138   0.000  1.00  0.00     0.178 C 
ATOM      9  C   UNL     1       4.042   2.071   0.000  1.00  0.00     0.053 C 
ATOM     10  C   UNL     1       1.472   1.688   0.000  1.00  0.00     0.082 C 
ATOM     11  C   UNL     1       0.298   0.755   0.000  1.00  0.00    -0.019 A 
ATOM     12  C   UNL     1      -1.097   1.306   0.000  1.00  0.00    -0.005 A 
ATOM     13  C   UNL     1      -1.319   2.789   0.000  1.00  0.00     0.049 C 
ENDROOT
BRANCH   1  14
ATOM     14  O   UNL     1      -3.667   0.923   0.000  1.00  0.00    -0.496 OA
ATOM     15  C   UNL     1      -4.841  -0.011   0.000  1.00  0.00     0.278 C 
ENDBRANCH   1  14
BRANCH   3  16
ATOM     16  O   UNL     1      -0.434  -3.145   0.000  1.00  0.00    -0.507 OA
ATOM     17  H   UNL     1       0.000   0.000   0.000  1.00  0.00     0.293 HD
ENDBRANCH   3  16
TORSDOF 2
