REMARK SMILES CC(C)[C@@H](C)/C=C/[C@@H](C)[C@H]1CCC2C34C=CC5(C[C@@H](O)CC[C@]5(C)C3CC[C@@]21C)OO4
REMARK SMILES IDX 7 1 6 2 4 3 5 4 2 5 1 6 3 7 8 8 9 9 10 10 11 11 28 12 12 13
REMARK SMILES IDX 27 14 13 15 26 16 14 17 25 18 15 19 31 20 23 21 16 22 30 23
REMARK SMILES IDX 22 24 17 25 21 26 18 27 19 28 29 29 24 30 20 31
REMARK H PARENT 20 32
ROOT
ATOM      1  C   UNL     1      -3.995  -0.243   0.000  1.00  0.00    -0.028 C 
ENDROOT
BRANCH   1   2
ATOM      2  C   UNL     1      -5.426   0.209   0.000  1.00  0.00    -0.028 C 
BRANCH   2   3
ATOM      3  C   UNL     1      -5.749   1.674   0.000  1.00  0.00     0.011 C 
ATOM      4  C   UNL     1      -7.179   2.126   0.000  1.00  0.00     0.012 C 
BRANCH   3   5
ATOM      5  C   UNL     1      -4.642   2.686   0.000  1.00  0.00    -0.011 C 
ATOM      6  C   UNL     1      -4.965   4.151   0.000  1.00  0.00     0.008 C 
ATOM      7  C   UNL     1      -3.212   2.234   0.000  1.00  0.00     0.008 C 
ENDBRANCH   3   5
ENDBRANCH   2   3
ENDBRANCH   1   2
BRANCH   1   8
ATOM      8  C   UNL     1      -3.672  -1.708   0.000  1.00  0.00     0.012 C 
ATOM      9  C   UNL     1      -4.779  -2.720   0.000  1.00  0.00     0.012 C 
BRANCH   8  10
ATOM     10  C   UNL     1      -2.242  -2.160   0.000  1.00  0.00     0.002 C 
ATOM     11  C   UNL     1      -1.767  -3.583   0.000  1.00  0.00     0.005 C 
ATOM     12  C   UNL     1      -1.035  -1.269   0.000  1.00  0.00    -0.023 C 
ATOM     13  C   UNL     1      -0.268  -3.572   0.000  1.00  0.00     0.008 C 
ATOM     14  C   UNL     1      -0.890   0.224   0.000  1.00  0.00     0.008 C 
ATOM     15  C   UNL     1       0.185  -2.142   0.000  1.00  0.00     0.035 C 
ATOM     16  C   UNL     1       0.475   0.844   0.000  1.00  0.00     0.008 C 
ATOM     17  C   UNL     1       1.550  -1.521   0.000  1.00  0.00     0.128 C 
ATOM     18  C   UNL     1       1.696  -0.028   0.000  1.00  0.00     0.038 C 
ATOM     19  C   UNL     1       2.771  -2.393   0.000  1.00  0.00     0.010 C 
ATOM     20  O   UNL     1       2.278  -1.135   0.000  1.00  0.00    -0.224 OA
ATOM     21  C   UNL     1       3.061   0.593   0.000  1.00  0.00     0.010 C 
ATOM     22  C   UNL     1       4.136  -1.772   0.000  1.00  0.00     0.011 C 
ATOM     23  O   UNL     1       3.513  -0.574   0.000  1.00  0.00    -0.224 OA
ATOM     24  C   UNL     1       3.206   2.086   0.000  1.00  0.00     0.013 C 
ATOM     25  C   UNL     1       4.282  -0.279   0.000  1.00  0.00     0.130 C 
ATOM     26  C   UNL     1       4.572   2.707   0.000  1.00  0.00     0.032 C 
ATOM     27  C   UNL     1       5.647   0.341   0.000  1.00  0.00     0.075 C 
ATOM     28  C   UNL     1       5.792   1.834   0.000  1.00  0.00     0.117 C 
ATOM     29  C   UNL     1      -2.340  -0.529   0.000  1.00  0.00     0.012 C 
ATOM     30  C   UNL     1       1.841   1.465   0.000  1.00  0.00     0.015 C 
BRANCH  28  31
ATOM     31  O   UNL     1       7.158   2.455   0.000  1.00  0.00    -0.393 OA
ATOM     32  H   UNL     1       0.000   0.000   0.000  1.00  0.00     0.210 HD
ENDBRANCH  28  31
ENDBRANCH   8  10
ENDBRANCH   1   8
TORSDOF 6
