REMARK SMILES CC(C)=CCc1c(O)cc(O)c2c(=O)c3cccc(O)c3n(C)c12
REMARK SMILES IDX 5 1 4 2 2 3 1 4 3 5 6 6 7 7 24 8 9 9 12 10 22 11 10 12 13 13
REMARK SMILES IDX 21 14 15 15 19 16 16 17 18 18 17 19 23 20 14 21 8 22 11 24
REMARK SMILES IDX 20 26
REMARK H PARENT 8 23 11 25 20 27
ROOT
ATOM      1  C   UNL     1      -2.466  -0.556   0.000  1.00  0.00     0.069 C 
ENDROOT
BRANCH   1   2
ATOM      2  C   UNL     1      -3.954  -0.365   0.000  1.00  0.00    -0.023 C 
BRANCH   2   3
ATOM      3  C   UNL     1      -4.863  -1.558   0.000  1.00  0.00    -0.080 C 
ATOM      4  C   UNL     1      -6.351  -1.367   0.000  1.00  0.00     0.039 C 
ATOM      5  C   UNL     1      -4.285  -2.942   0.000  1.00  0.00     0.039 C 
ENDBRANCH   2   3
ENDBRANCH   1   2
BRANCH   1   6
ATOM      6  C   UNL     1      -1.557   0.636   0.000  1.00  0.00     0.022 A 
ATOM      7  C   UNL     1      -2.135   2.021   0.000  1.00  0.00     0.124 A 
ATOM      8  C   UNL     1      -0.069   0.445   0.000  1.00  0.00     0.063 A 
ATOM      9  C   UNL     1      -1.226   3.213   0.000  1.00  0.00     0.093 A 
ATOM     10  C   UNL     1       0.841   1.638   0.000  1.00  0.00     0.089 A 
ATOM     11  N   UNL     1       0.510  -0.939   0.000  1.00  0.00    -0.340 N 
ATOM     12  C   UNL     1       0.262   3.022   0.000  1.00  0.00     0.132 A 
ATOM     13  C   UNL     1       2.328   1.447   0.000  1.00  0.00     0.201 A 
ATOM     14  C   UNL     1       1.997  -1.130   0.000  1.00  0.00     0.095 A 
ATOM     15  C   UNL     1       2.907   0.063   0.000  1.00  0.00     0.050 A 
ATOM     16  C   UNL     1       2.576  -2.514   0.000  1.00  0.00     0.139 A 
ATOM     17  C   UNL     1       4.394  -0.128   0.000  1.00  0.00     0.014 A 
ATOM     18  C   UNL     1       4.064  -2.705   0.000  1.00  0.00     0.048 A 
ATOM     19  C   UNL     1       4.973  -1.512   0.000  1.00  0.00     0.005 A 
ATOM     20  C   UNL     1      -0.400  -2.131   0.000  1.00  0.00     0.150 C 
ATOM     21  O   UNL     1       3.238   2.640   0.000  1.00  0.00    -0.288 OA
BRANCH   7  22
ATOM     22  O   UNL     1      -3.623   2.212   0.000  1.00  0.00    -0.507 OA
ATOM     23  H   UNL     1       0.000   0.000   0.000  1.00  0.00     0.293 HD
ENDBRANCH   7  22
BRANCH  12  24
ATOM     24  O   UNL     1       1.172   4.215   0.000  1.00  0.00    -0.507 OA
ATOM     25  H   UNL     1       0.000   0.000   0.000  1.00  0.00     0.293 HD
ENDBRANCH  12  24
BRANCH  16  26
ATOM     26  O   UNL     1       1.666  -3.707   0.000  1.00  0.00    -0.506 OA
ATOM     27  H   UNL     1       0.000   0.000   0.000  1.00  0.00     0.293 HD
ENDBRANCH  16  26
ENDBRANCH   1   6
TORSDOF 6
