REMARK SMILES CC(C)(O)CNC(=O)C=CC=Cc1ccc2c(c1)OCO2
REMARK SMILES IDX 6 1 7 2 8 3 5 5 2 6 1 7 3 8 4 9 9 11 10 12 11 13 12 14 13 15
REMARK SMILES IDX 14 16 18 17 15 18 17 19 16 20 19 21 21 22 20 23
REMARK H PARENT 6 4 4 10
ROOT
ATOM      1  N   UNL     1       4.694  -0.258   0.000  1.00  0.00    -0.350 N 
ATOM      2  C   UNL     1       3.457   0.591   0.000  1.00  0.00     0.244 C 
ATOM      3  O   UNL     1       3.573   2.086   0.000  1.00  0.00    -0.270 OA
ATOM      4  H   UNL     1       0.000   0.000   0.000  1.00  0.00     0.163 HD
ENDROOT
BRANCH   1   5
ATOM      5  C   UNL     1       6.047   0.389   0.000  1.00  0.00     0.150 C 
BRANCH   5   6
ATOM      6  C   UNL     1       7.284  -0.459   0.000  1.00  0.00     0.076 C 
ATOM      7  C   UNL     1       6.436  -1.696   0.000  1.00  0.00     0.043 C 
ATOM      8  C   UNL     1       8.133   0.778   0.000  1.00  0.00     0.043 C 
BRANCH   6   9
ATOM      9  O   UNL     1       8.521  -1.308   0.000  1.00  0.00    -0.389 OA
ATOM     10  H   UNL     1       0.000   0.000   0.000  1.00  0.00     0.211 HD
ENDBRANCH   6   9
ENDBRANCH   5   6
ENDBRANCH   1   5
BRANCH   2  11
ATOM     11  C   UNL     1       2.103  -0.056   0.000  1.00  0.00     0.071 C 
BRANCH  11  12
ATOM     12  C   UNL     1       0.867   0.792   0.000  1.00  0.00     0.006 C 
BRANCH  12  13
ATOM     13  C   UNL     1      -0.487   0.145   0.000  1.00  0.00     0.001 C 
BRANCH  13  14
ATOM     14  C   UNL     1      -1.724   0.994   0.000  1.00  0.00     0.008 C 
BRANCH  14  15
ATOM     15  C   UNL     1      -3.077   0.347   0.000  1.00  0.00    -0.022 A 
ATOM     16  C   UNL     1      -3.193  -1.149   0.000  1.00  0.00     0.012 A 
ATOM     17  C   UNL     1      -4.314   1.195   0.000  1.00  0.00     0.058 A 
ATOM     18  C   UNL     1      -4.547  -1.796   0.000  1.00  0.00     0.051 A 
ATOM     19  C   UNL     1      -5.667   0.548   0.000  1.00  0.00     0.166 A 
ATOM     20  C   UNL     1      -5.784  -0.947   0.000  1.00  0.00     0.165 A 
ATOM     21  O   UNL     1      -7.054   1.121   0.000  1.00  0.00    -0.454 OA
ATOM     22  O   UNL     1      -7.242  -1.299   0.000  1.00  0.00    -0.454 OA
ATOM     23  C   UNL     1      -8.027  -0.021   0.000  1.00  0.00     0.468 C 
ENDBRANCH  14  15
ENDBRANCH  13  14
ENDBRANCH  12  13
ENDBRANCH  11  12
ENDBRANCH   2  11
TORSDOF 8
