REMARK SMILES COc1ccc2c(c1)OCc1c-2oc2cc3c(cc12)OCO3
REMARK SMILES IDX 1 1 2 2 3 3 4 4 8 5 5 6 7 7 6 8 9 9 12 10 10 11 11 12 13 13
REMARK SMILES IDX 19 14 14 15 18 16 15 17 17 18 16 19 20 20 22 21 21 22
REMARK H PARENT
ROOT
ATOM      1  C   UNL     1       7.232  -0.873   0.000  1.00  0.00     0.278 C 
ATOM      2  O   UNL     1       6.496   0.434   0.000  1.00  0.00    -0.497 OA
ENDROOT
BRANCH   2   3
ATOM      3  C   UNL     1       4.996   0.450   0.000  1.00  0.00     0.122 A 
ATOM      4  C   UNL     1       4.259   1.756   0.000  1.00  0.00     0.047 A 
ATOM      5  C   UNL     1       4.232  -0.842   0.000  1.00  0.00     0.093 A 
ATOM      6  C   UNL     1       2.759   1.772   0.000  1.00  0.00     0.020 A 
ATOM      7  C   UNL     1       2.733  -0.826   0.000  1.00  0.00     0.134 A 
ATOM      8  C   UNL     1       1.996   0.480   0.000  1.00  0.00     0.060 A 
ATOM      9  O   UNL     1       1.969  -2.118   0.000  1.00  0.00    -0.488 OA
ATOM     10  C   UNL     1       0.496   0.496   0.000  1.00  0.00     0.145 A 
ATOM     11  C   UNL     1       0.469  -2.102   0.000  1.00  0.00     0.270 C 
ATOM     12  C   UNL     1      -0.267  -0.795   0.000  1.00  0.00     0.044 A 
ATOM     13  O   UNL     1      -0.496   1.621   0.000  1.00  0.00    -0.455 OA
ATOM     14  C   UNL     1      -1.731  -0.469   0.000  1.00  0.00     0.032 A 
ATOM     15  C   UNL     1      -1.873   1.025   0.000  1.00  0.00     0.139 A 
ATOM     16  C   UNL     1      -2.954  -1.338   0.000  1.00  0.00     0.063 A 
ATOM     17  C   UNL     1      -3.237   1.649   0.000  1.00  0.00     0.098 A 
ATOM     18  C   UNL     1      -4.318  -0.713   0.000  1.00  0.00     0.166 A 
ATOM     19  C   UNL     1      -4.459   0.780   0.000  1.00  0.00     0.169 A 
ATOM     20  O   UNL     1      -5.694  -1.309   0.000  1.00  0.00    -0.454 OA
ATOM     21  O   UNL     1      -5.923   1.107   0.000  1.00  0.00    -0.453 OA
ATOM     22  C   UNL     1      -6.686  -0.184   0.000  1.00  0.00     0.468 C 
ENDBRANCH   2   3
TORSDOF 1
