REMARK SMILES CC(=O)C=CC1=C(C)CCCC1(C)C
REMARK SMILES IDX 4 1 2 2 1 3 3 4 5 5 6 6 7 7 12 8 9 9 11 10 10 11 8 12 13 13
REMARK SMILES IDX 14 14
REMARK H PARENT
ROOT
ATOM      1  C   UNL     1      -2.001   0.407   0.000  1.00  0.00     0.047 C 
ENDROOT
BRANCH   1   2
ATOM      2  C   UNL     1      -3.410  -0.108   0.000  1.00  0.00     0.152 C 
ATOM      3  C   UNL     1      -4.561   0.854   0.000  1.00  0.00     0.093 C 
ATOM      4  O   UNL     1      -3.668  -1.586   0.000  1.00  0.00    -0.295 OA
ENDBRANCH   1   2
BRANCH   1   5
ATOM      5  C   UNL     1      -0.850  -0.555   0.000  1.00  0.00     0.008 C 
BRANCH   5   6
ATOM      6  C   UNL     1       0.558  -0.040   0.000  1.00  0.00    -0.043 C 
ATOM      7  C   UNL     1       0.816   1.438   0.000  1.00  0.00    -0.070 C 
ATOM      8  C   UNL     1       1.709  -1.002   0.000  1.00  0.00    -0.010 C 
ATOM      9  C   UNL     1       2.225   1.954   0.000  1.00  0.00     0.031 C 
ATOM     10  C   UNL     1       3.118  -0.486   0.000  1.00  0.00     0.011 C 
ATOM     11  C   UNL     1       3.376   0.992   0.000  1.00  0.00     0.005 C 
ATOM     12  C   UNL     1      -0.335   2.400   0.000  1.00  0.00     0.040 C 
ATOM     13  C   UNL     1       2.461  -2.299   0.000  1.00  0.00     0.016 C 
ATOM     14  C   UNL     1       0.562  -1.968   0.000  1.00  0.00     0.016 C 
ENDBRANCH   5   6
ENDBRANCH   1   5
TORSDOF 3
