REMARK SMILES COc1ccc(-c2cc(=O)c3c(O)cc(OC)c(OC)c3o2)cc1OC
REMARK SMILES IDX 7 1 8 2 9 3 10 4 11 5 12 6 14 7 15 8 18 9 21 10 22 11 6 12
REMARK SMILES IDX 3 13 4 14 24 15 5 16 23 17 2 18 1 19 25 20 26 21 19 22 20 23
REMARK SMILES IDX 13 24 16 26 17 27
REMARK H PARENT 13 25
ROOT
ATOM      1  C   UNL     1      -0.633  -0.376   0.000  1.00  0.00     0.138 A 
ATOM      2  C   UNL     1      -0.309  -1.841   0.000  1.00  0.00     0.100 A 
ATOM      3  C   UNL     1       1.121  -2.293   0.000  1.00  0.00     0.197 A 
ATOM      4  O   UNL     1       1.445  -3.757   0.000  1.00  0.00    -0.289 OA
ATOM      5  C   UNL     1       2.228  -1.280   0.000  1.00  0.00     0.111 A 
ATOM      6  C   UNL     1       3.658  -1.732   0.000  1.00  0.00     0.134 A 
ATOM      7  C   UNL     1       4.764  -0.719   0.000  1.00  0.00     0.097 A 
ATOM      8  C   UNL     1       4.441   0.745   0.000  1.00  0.00     0.168 A 
ATOM      9  C   UNL     1       3.010   1.197   0.000  1.00  0.00     0.205 A 
ATOM     10  C   UNL     1       1.904   0.185   0.000  1.00  0.00     0.188 A 
ATOM     11  O   UNL     1       0.473   0.636   0.000  1.00  0.00    -0.452 OA
ENDROOT
BRANCH   1  12
ATOM     12  C   UNL     1      -2.063   0.075   0.000  1.00  0.00     0.021 A 
ATOM     13  C   UNL     1      -4.924   0.979   0.000  1.00  0.00     0.160 A 
ATOM     14  C   UNL     1      -3.818   1.992   0.000  1.00  0.00     0.051 A 
ATOM     15  C   UNL     1      -4.600  -0.485   0.000  1.00  0.00     0.161 A 
ATOM     16  C   UNL     1      -2.387   1.540   0.000  1.00  0.00     0.016 A 
ATOM     17  C   UNL     1      -3.170  -0.937   0.000  1.00  0.00     0.062 A 
BRANCH  13  18
ATOM     18  O   UNL     1      -6.354   1.431   0.000  1.00  0.00    -0.493 OA
ATOM     19  C   UNL     1      -6.678   2.896   0.000  1.00  0.00     0.278 C 
ENDBRANCH  13  18
BRANCH  15  20
ATOM     20  O   UNL     1      -5.707  -1.498   0.000  1.00  0.00    -0.493 OA
ATOM     21  C   UNL     1      -5.383  -2.963   0.000  1.00  0.00     0.278 C 
ENDBRANCH  15  20
ENDBRANCH   1  12
BRANCH   9  22
ATOM     22  O   UNL     1       2.686   2.662   0.000  1.00  0.00    -0.490 OA
ATOM     23  C   UNL     1       3.793   3.675   0.000  1.00  0.00     0.278 C 
ENDBRANCH   9  22
BRANCH   6  24
ATOM     24  O   UNL     1       3.982  -3.197   0.000  1.00  0.00    -0.507 OA
ATOM     25  H   UNL     1       0.000   0.000   0.000  1.00  0.00     0.293 HD
ENDBRANCH   6  24
BRANCH   8  26
ATOM     26  O   UNL     1       5.547   1.758   0.000  1.00  0.00    -0.493 OA
ATOM     27  C   UNL     1       6.977   1.306   0.000  1.00  0.00     0.278 C 
ENDBRANCH   8  26
TORSDOF 6
