REMARK SMILES CC1(C)O[C@H]2CC(=O)OC[C@]23[C@H]2CC[C@@]4(C)[C@H](C5=CC(O)OC5=O)OC(=O)[C@H]5O[C@]54[C@]2(C)C(=O)C[C@@H]13
REMARK SMILES IDX 18 1 19 2 20 3 22 4 23 5 24 6 17 7 2 8 4 9 36 10 5 11 35 12
REMARK SMILES IDX 11 13 6 14 33 15 10 16 12 17 7 18 31 19 9 20 13 21 30 22
REMARK SMILES IDX 14 23 29 24 15 25 28 26 26 27 25 28 1 29 3 30 34 31 8 32
REMARK SMILES IDX 32 33 16 34 27 35 21 36
REMARK H PARENT 21 37
ROOT
ATOM      1  C   UNL     1       3.995   0.287   0.000  1.00  0.00     0.080 C 
ATOM      2  C   UNL     1       3.732   1.763   0.000  1.00  0.00     0.063 C 
ATOM      3  C   UNL     1       5.055   2.470   0.000  1.00  0.00     0.334 C 
ATOM      4  O   UNL     1       6.136   1.430   0.000  1.00  0.00    -0.429 OA
ATOM      5  C   UNL     1       5.481   0.081   0.000  1.00  0.00     0.340 C 
ATOM      6  O   UNL     1       6.187  -1.242   0.000  1.00  0.00    -0.246 OA
ENDROOT
BRANCH   1   7
ATOM      7  C   UNL     1       2.955  -0.794   0.000  1.00  0.00     0.223 C 
ATOM      8  C   UNL     1      -5.259   0.220   0.000  1.00  0.00     0.067 C 
ATOM      9  O   UNL     1      -5.053   1.706   0.000  1.00  0.00    -0.371 OA
ATOM     10  C   UNL     1      -3.910  -0.435   0.000  1.00  0.00     0.040 C 
ATOM     11  C   UNL     1      -3.576   1.969   0.000  1.00  0.00     0.140 C 
ATOM     12  C   UNL     1      -3.494  -1.876   0.000  1.00  0.00     0.083 C 
ATOM     13  C   UNL     1      -2.870   0.646   0.000  1.00  0.00     0.041 C 
ATOM     14  C   UNL     1      -2.454   2.625   0.000  1.00  0.00     0.155 C 
ATOM     15  C   UNL     1      -2.037  -2.236   0.000  1.00  0.00     0.142 C 
ATOM     16  C   UNL     1      -1.700   1.214   0.000  1.00  0.00     0.243 C 
ATOM     17  C   UNL     1      -1.414   0.286   0.000  1.00  0.00     0.018 C 
ATOM     18  C   UNL     1      -1.655   2.599   0.000  1.00  0.00     0.308 C 
ATOM     19  C   UNL     1      -0.997  -1.155   0.000  1.00  0.00     0.063 C 
ATOM     20  O   UNL     1      -1.278   1.893   0.000  1.00  0.00    -0.465 OA
ATOM     21  C   UNL     1      -0.374   1.367   0.000  1.00  0.00     0.006 C 
ATOM     22  C   UNL     1       0.459  -1.515   0.000  1.00  0.00     0.128 C 
ATOM     23  C   UNL     1       1.083   1.007   0.000  1.00  0.00     0.014 C 
ATOM     24  O   UNL     1      -0.581  -2.596   0.000  1.00  0.00    -0.352 OA
ATOM     25  C   UNL     1       1.499  -0.434   0.000  1.00  0.00     0.042 C 
ATOM     26  C   UNL     1       0.875  -2.956   0.000  1.00  0.00     0.262 C 
ATOM     27  C   UNL     1       2.331  -3.317   0.000  1.00  0.00     0.339 C 
ATOM     28  O   UNL     1       3.371  -2.236   0.000  1.00  0.00    -0.454 OA
ATOM     29  C   UNL     1      -6.715   0.580   0.000  1.00  0.00     0.042 C 
ATOM     30  C   UNL     1      -5.769  -1.190   0.000  1.00  0.00     0.042 C 
ATOM     31  O   UNL     1      -1.621  -3.677   0.000  1.00  0.00    -0.299 OA
ATOM     32  O   UNL     1      -0.492   4.467   0.000  1.00  0.00    -0.252 OA
ATOM     33  C   UNL     1      -2.454  -0.795   0.000  1.00  0.00     0.023 C 
ATOM     34  C   UNL     1       2.539   0.647   0.000  1.00  0.00     0.019 C 
ATOM     35  O   UNL     1       2.747  -4.758   0.000  1.00  0.00    -0.249 OA
ENDBRANCH   1   7
BRANCH   3  36
ATOM     36  O   UNL     1       5.261   3.956   0.000  1.00  0.00    -0.355 OA
ATOM     37  H   UNL     1       0.000   0.000   0.000  1.00  0.00     0.215 HD
ENDBRANCH   3  36
TORSDOF 2
