REMARK SMILES COc1ccc(-c2coc3cc(O)ccc3c2=O)cc1O
REMARK SMILES IDX 7 1 8 2 9 3 10 4 11 5 12 6 14 7 15 8 16 9 17 10 18 11 6 12
REMARK SMILES IDX 3 13 4 14 20 15 5 16 19 17 2 18 1 19 21 20 13 22
REMARK H PARENT 21 21 13 23
ROOT
ATOM      1  C   UNL     1       0.044  -0.444   0.000  1.00  0.00     0.065 A 
ATOM      2  C   UNL     1       0.600  -1.837   0.000  1.00  0.00     0.208 A 
ATOM      3  O   UNL     1       2.085  -2.052   0.000  1.00  0.00    -0.463 OA
ATOM      4  C   UNL     1       3.013  -0.874   0.000  1.00  0.00     0.141 A 
ATOM      5  C   UNL     1       4.498  -1.089   0.000  1.00  0.00     0.094 A 
ATOM      6  C   UNL     1       5.426   0.090   0.000  1.00  0.00     0.119 A 
ATOM      7  C   UNL     1       4.870   1.483   0.000  1.00  0.00     0.047 A 
ATOM      8  C   UNL     1       3.385   1.698   0.000  1.00  0.00     0.020 A 
ATOM      9  C   UNL     1       2.457   0.519   0.000  1.00  0.00     0.066 A 
ATOM     10  C   UNL     1       0.972   0.734   0.000  1.00  0.00     0.200 A 
ATOM     11  O   UNL     1       0.416   2.127   0.000  1.00  0.00    -0.288 OA
ENDROOT
BRANCH   1  12
ATOM     12  C   UNL     1      -1.440  -0.229   0.000  1.00  0.00    -0.007 A 
ATOM     13  C   UNL     1      -4.410   0.201   0.000  1.00  0.00     0.160 A 
ATOM     14  C   UNL     1      -3.481   1.379   0.000  1.00  0.00     0.051 A 
ATOM     15  C   UNL     1      -3.853  -1.192   0.000  1.00  0.00     0.158 A 
ATOM     16  C   UNL     1      -1.997   1.164   0.000  1.00  0.00     0.013 A 
ATOM     17  C   UNL     1      -2.369  -1.407   0.000  1.00  0.00     0.059 A 
BRANCH  13  18
ATOM     18  O   UNL     1      -5.894   0.416   0.000  1.00  0.00    -0.493 OA
ATOM     19  C   UNL     1      -6.450   1.809   0.000  1.00  0.00     0.278 C 
ENDBRANCH  13  18
BRANCH  15  20
ATOM     20  O   UNL     1      -4.782  -2.370   0.000  1.00  0.00    -0.504 OA
ATOM     21  H   UNL     1       0.000   0.000   0.000  1.00  0.00     0.293 HD
ENDBRANCH  15  20
ENDBRANCH   1  12
BRANCH   6  22
ATOM     22  O   UNL     1       6.910  -0.125   0.000  1.00  0.00    -0.508 OA
ATOM     23  H   UNL     1       0.000   0.000   0.000  1.00  0.00     0.293 HD
ENDBRANCH   6  22
TORSDOF 4
