REMARK SMILES C[C@@H]1O[C@@H](OC[C@H]2O[C@@H](Oc3c(-c4ccc(O)cc4)oc4cc(O)cc(O)c4c3=O)[C@H](O)[C@@H](O)[C@H]2O)[C@H](O)[C@H](O)[C@H]1O
REMARK SMILES IDX 7 1 8 2 9 3 31 4 33 5 35 6 6 7 5 8 4 9 2 10 3 11 41 12 39 13
REMARK SMILES IDX 37 14 1 15 42 16 40 18 38 20 36 22 10 24 11 25 12 26 29 27
REMARK SMILES IDX 20 28 28 29 21 30 26 31 22 32 25 33 23 34 30 35 13 36 14 37
REMARK SMILES IDX 19 38 15 39 18 40 16 41 17 42 27 44 24 46 34 48 32 50
REMARK H PARENT 42 17 40 19 38 21 36 23 17 43 27 45 24 47 34 49 32 51
ROOT
ATOM      1  C   UNL     1      -1.304   1.882   0.000  1.00  0.00     0.180 C 
ATOM      2  O   UNL     1       0.032   1.200   0.000  1.00  0.00    -0.332 OA
ATOM      3  C   UNL     1       1.291   2.015   0.000  1.00  0.00     0.339 C 
ATOM      4  C   UNL     1       1.214   3.513   0.000  1.00  0.00     0.214 C 
ATOM      5  C   UNL     1      -0.121   4.196   0.000  1.00  0.00     0.180 C 
ATOM      6  C   UNL     1      -1.380   3.381   0.000  1.00  0.00     0.177 C 
ENDROOT
BRANCH   1   7
ATOM      7  C   UNL     1      -2.563   1.067   0.000  1.00  0.00     0.198 C 
BRANCH   7   8
ATOM      8  O   UNL     1      -3.899   1.750   0.000  1.00  0.00    -0.347 OA
BRANCH   8   9
ATOM      9  C   UNL     1      -5.158   0.935   0.000  1.00  0.00     0.281 C 
ATOM     10  C   UNL     1      -7.752   0.802   0.000  1.00  0.00     0.150 C 
ATOM     11  O   UNL     1      -6.493   1.618   0.000  1.00  0.00    -0.344 OA
ATOM     12  C   UNL     1      -7.676  -0.696   0.000  1.00  0.00     0.174 C 
ATOM     13  C   UNL     1      -6.340  -1.378   0.000  1.00  0.00     0.179 C 
ATOM     14  C   UNL     1      -5.081  -0.563   0.000  1.00  0.00     0.202 C 
ATOM     15  C   UNL     1      -9.088   1.485   0.000  1.00  0.00     0.041 C 
BRANCH  12  16
ATOM     16  O   UNL     1      -8.935  -1.511   0.000  1.00  0.00    -0.388 OA
ATOM     17  H   UNL     1       0.000   0.000   0.000  1.00  0.00     0.211 HD
ENDBRANCH  12  16
BRANCH  13  18
ATOM     18  O   UNL     1      -6.264  -2.877   0.000  1.00  0.00    -0.387 OA
ATOM     19  H   UNL     1       0.000   0.000   0.000  1.00  0.00     0.211 HD
ENDBRANCH  13  18
BRANCH  14  20
ATOM     20  O   UNL     1      -3.746  -1.246   0.000  1.00  0.00    -0.385 OA
ATOM     21  H   UNL     1       0.000   0.000   0.000  1.00  0.00     0.211 HD
ENDBRANCH  14  20
ENDBRANCH   8   9
ENDBRANCH   7   8
ENDBRANCH   1   7
BRANCH   6  22
ATOM     22  O   UNL     1      -2.716   4.063   0.000  1.00  0.00    -0.387 OA
ATOM     23  H   UNL     1       0.000   0.000   0.000  1.00  0.00     0.211 HD
ENDBRANCH   6  22
BRANCH   3  24
ATOM     24  O   UNL     1       2.626   1.332   0.000  1.00  0.00    -0.454 OA
BRANCH  24  25
ATOM     25  C   UNL     1       2.703  -0.166   0.000  1.00  0.00     0.214 A 
ATOM     26  C   UNL     1       4.038  -0.849   0.000  1.00  0.00     0.180 A 
ATOM     27  C   UNL     1       1.444  -0.981   0.000  1.00  0.00     0.239 A 
ATOM     28  O   UNL     1       4.115  -2.347   0.000  1.00  0.00    -0.452 OA
ATOM     29  C   UNL     1       1.520  -2.479   0.000  1.00  0.00     0.111 A 
ATOM     30  C   UNL     1       2.856  -3.162   0.000  1.00  0.00     0.146 A 
ATOM     31  C   UNL     1       0.261  -3.295   0.000  1.00  0.00     0.134 A 
ATOM     32  C   UNL     1       2.932  -4.660   0.000  1.00  0.00     0.094 A 
ATOM     33  C   UNL     1       0.337  -4.793   0.000  1.00  0.00     0.093 A 
ATOM     34  C   UNL     1       1.673  -5.475   0.000  1.00  0.00     0.123 A 
ATOM     35  O   UNL     1       0.108  -0.298   0.000  1.00  0.00    -0.285 OA
BRANCH  26  36
ATOM     36  C   UNL     1       5.298  -0.034   0.000  1.00  0.00     0.021 A 
ATOM     37  C   UNL     1       5.221   1.464   0.000  1.00  0.00     0.016 A 
ATOM     38  C   UNL     1       6.633  -0.717   0.000  1.00  0.00     0.016 A 
ATOM     39  C   UNL     1       6.480   2.280   0.000  1.00  0.00     0.047 A 
ATOM     40  C   UNL     1       7.892   0.099   0.000  1.00  0.00     0.047 A 
ATOM     41  C   UNL     1       7.816   1.597   0.000  1.00  0.00     0.115 A 
BRANCH  41  42
ATOM     42  O   UNL     1       9.075   2.412   0.000  1.00  0.00    -0.508 OA
ATOM     43  H   UNL     1       0.000   0.000   0.000  1.00  0.00     0.293 HD
ENDBRANCH  41  42
ENDBRANCH  26  36
BRANCH  31  44
ATOM     44  O   UNL     1      -1.075  -2.612   0.000  1.00  0.00    -0.507 OA
ATOM     45  H   UNL     1       0.000   0.000   0.000  1.00  0.00     0.293 HD
ENDBRANCH  31  44
BRANCH  34  46
ATOM     46  O   UNL     1       1.749  -6.973   0.000  1.00  0.00    -0.508 OA
ATOM     47  H   UNL     1       0.000   0.000   0.000  1.00  0.00     0.293 HD
ENDBRANCH  34  46
ENDBRANCH  24  25
ENDBRANCH   3  24
BRANCH   5  48
ATOM     48  O   UNL     1      -0.198   5.694   0.000  1.00  0.00    -0.387 OA
ATOM     49  H   UNL     1       0.000   0.000   0.000  1.00  0.00     0.211 HD
ENDBRANCH   5  48
BRANCH   4  50
ATOM     50  O   UNL     1       2.474   4.328   0.000  1.00  0.00    -0.384 OA
ATOM     51  H   UNL     1       0.000   0.000   0.000  1.00  0.00     0.211 HD
ENDBRANCH   4  50
TORSDOF 15
