REMARK SMILES COCc1ccc(C)c2c1C(=O)[C@H](O)[C@@H](C(C)(C)O)C2
REMARK SMILES IDX 4 1 5 2 6 3 7 4 8 5 9 6 10 7 11 8 12 9 13 10 15 11 20 12
REMARK SMILES IDX 3 13 2 14 1 15 14 16 16 18 17 19 18 20 19 21
REMARK H PARENT 14 17 19 22
ROOT
ATOM      1  C   UNL     1      -2.318   0.186   0.000  1.00  0.00    -0.011 A 
ATOM      2  C   UNL     1      -2.961   1.540   0.000  1.00  0.00     0.007 A 
ATOM      3  C   UNL     1      -2.110   2.776   0.000  1.00  0.00     0.004 A 
ATOM      4  C   UNL     1      -0.615   2.656   0.000  1.00  0.00    -0.047 A 
ATOM      5  C   UNL     1       0.236   3.891   0.000  1.00  0.00     0.044 C 
ATOM      6  C   UNL     1       0.029   1.301   0.000  1.00  0.00    -0.033 A 
ATOM      7  C   UNL     1      -0.822   0.066   0.000  1.00  0.00     0.029 A 
ATOM      8  C   UNL     1      -0.178  -1.289   0.000  1.00  0.00     0.192 C 
ATOM      9  O   UNL     1      -1.030  -2.524   0.000  1.00  0.00    -0.291 OA
ATOM     10  C   UNL     1       1.317  -1.409   0.000  1.00  0.00     0.192 C 
ATOM     11  C   UNL     1       2.168  -0.174   0.000  1.00  0.00     0.061 C 
ATOM     12  C   UNL     1       1.524   1.181   0.000  1.00  0.00     0.046 C 
ENDROOT
BRANCH   1  13
ATOM     13  C   UNL     1      -3.169  -1.049   0.000  1.00  0.00     0.196 C 
BRANCH  13  14
ATOM     14  O   UNL     1      -4.664  -0.929   0.000  1.00  0.00    -0.380 OA
ATOM     15  C   UNL     1      -5.516  -2.164   0.000  1.00  0.00     0.195 C 
ENDBRANCH  13  14
ENDBRANCH   1  13
BRANCH  10  16
ATOM     16  O   UNL     1       1.960  -2.764   0.000  1.00  0.00    -0.385 OA
ATOM     17  H   UNL     1       0.000   0.000   0.000  1.00  0.00     0.211 HD
ENDBRANCH  10  16
BRANCH  11  18
ATOM     18  C   UNL     1       3.663  -0.294   0.000  1.00  0.00     0.065 C 
ATOM     19  C   UNL     1       3.783   1.202   0.000  1.00  0.00     0.042 C 
ATOM     20  C   UNL     1       3.543  -1.789   0.000  1.00  0.00     0.042 C 
BRANCH  18  21
ATOM     21  O   UNL     1       5.159  -0.413   0.000  1.00  0.00    -0.390 OA
ATOM     22  H   UNL     1       0.000   0.000   0.000  1.00  0.00     0.211 HD
ENDBRANCH  18  21
ENDBRANCH  11  18
TORSDOF 5
