REMARK SMILES CC[C@H](/C=C/[C@@H](C)[C@H]1CC[C@H]2[C@@H]3CC=C4C[C@@H](O[C@@H]5O[C@H](CO)[C@@H](O)[C@H](O)[C@H]5O)CC[C@]4(C)[C@H]3CC[C@]12C)C(C)C
REMARK SMILES IDX 8 1 9 2 10 3 11 4 12 5 13 6 14 7 15 8 16 9 17 10 30 11 31 12
REMARK SMILES IDX 32 13 33 14 34 15 35 16 36 17 37 18 38 19 6 20 7 21 5 22
REMARK SMILES IDX 4 23 3 24 2 25 1 26 39 27 40 28 41 29 18 30 19 31 20 32
REMARK SMILES IDX 28 33 21 34 26 35 24 36 29 37 22 39 23 40 27 42 25 44
REMARK H PARENT 29 38 23 41 27 43 25 45
ROOT
ATOM      1  C   UNL     1      -4.582  -2.374   0.000  1.00  0.00     0.002 C 
ATOM      2  C   UNL     1      -4.109  -3.798   0.000  1.00  0.00     0.005 C 
ATOM      3  C   UNL     1      -2.609  -3.788   0.000  1.00  0.00     0.005 C 
ATOM      4  C   UNL     1      -2.155  -2.358   0.000  1.00  0.00    -0.001 C 
ATOM      5  C   UNL     1      -0.788  -1.740   0.000  1.00  0.00     0.000 C 
ATOM      6  C   UNL     1       0.431  -2.613   0.000  1.00  0.00     0.031 C 
ATOM      7  C   UNL     1       1.797  -1.994   0.000  1.00  0.00    -0.027 C 
ATOM      8  C   UNL     1       1.944  -0.501   0.000  1.00  0.00    -0.065 C 
ATOM      9  C   UNL     1       3.311   0.117   0.000  1.00  0.00     0.063 C 
ATOM     10  C   UNL     1       3.458   1.610   0.000  1.00  0.00     0.125 C 
ATOM     11  C   UNL     1       2.238   2.484   0.000  1.00  0.00     0.033 C 
ATOM     12  C   UNL     1       0.872   1.865   0.000  1.00  0.00     0.014 C 
ATOM     13  C   UNL     1       0.725   0.372   0.000  1.00  0.00    -0.008 C 
ATOM     14  C   UNL     1      -0.494   1.246   0.000  1.00  0.00     0.016 C 
ATOM     15  C   UNL     1      -0.641  -0.247   0.000  1.00  0.00     0.003 C 
ATOM     16  C   UNL     1      -1.861   0.627   0.000  1.00  0.00     0.005 C 
ATOM     17  C   UNL     1      -3.227   0.008   0.000  1.00  0.00     0.007 C 
ATOM     18  C   UNL     1      -3.374  -1.485   0.000  1.00  0.00    -0.026 C 
ATOM     19  C   UNL     1      -4.678  -0.743   0.000  1.00  0.00     0.012 C 
ENDROOT
BRANCH   1  20
ATOM     20  C   UNL     1      -6.011  -1.920   0.000  1.00  0.00     0.012 C 
ATOM     21  C   UNL     1      -7.120  -2.931   0.000  1.00  0.00     0.012 C 
BRANCH  20  22
ATOM     22  C   UNL     1      -6.333  -0.455   0.000  1.00  0.00    -0.028 C 
BRANCH  22  23
ATOM     23  C   UNL     1      -7.762  -0.001   0.000  1.00  0.00    -0.027 C 
BRANCH  23  24
ATOM     24  C   UNL     1      -8.084   1.464   0.000  1.00  0.00     0.014 C 
BRANCH  24  25
ATOM     25  C   UNL     1      -9.513   1.919   0.000  1.00  0.00     0.004 C 
ATOM     26  C   UNL     1      -9.835   3.384   0.000  1.00  0.00     0.004 C 
ENDBRANCH  24  25
BRANCH  24  27
ATOM     27  C   UNL     1      -6.976   2.475   0.000  1.00  0.00    -0.011 C 
ATOM     28  C   UNL     1      -7.297   3.941   0.000  1.00  0.00     0.008 C 
ATOM     29  C   UNL     1      -5.546   2.021   0.000  1.00  0.00     0.008 C 
ENDBRANCH  24  27
ENDBRANCH  23  24
ENDBRANCH  22  23
ENDBRANCH  20  22
ENDBRANCH   1  20
BRANCH  10  30
ATOM     30  O   UNL     1       4.824   2.229   0.000  1.00  0.00    -0.346 OA
BRANCH  30  31
ATOM     31  C   UNL     1       6.043   1.355   0.000  1.00  0.00     0.282 C 
ATOM     32  O   UNL     1       5.896  -0.137   0.000  1.00  0.00    -0.341 OA
ATOM     33  C   UNL     1       7.409   1.975   0.000  1.00  0.00     0.202 C 
ATOM     34  C   UNL     1       7.115  -1.011   0.000  1.00  0.00     0.178 C 
ATOM     35  C   UNL     1       8.629   1.101   0.000  1.00  0.00     0.179 C 
ATOM     36  C   UNL     1       8.482  -0.392   0.000  1.00  0.00     0.177 C 
BRANCH  33  37
ATOM     37  O   UNL     1       7.556   3.467   0.000  1.00  0.00    -0.385 OA
ATOM     38  H   UNL     1       0.000   0.000   0.000  1.00  0.00     0.211 HD
ENDBRANCH  33  37
BRANCH  34  39
ATOM     39  C   UNL     1       6.968  -2.504   0.000  1.00  0.00     0.191 C 
BRANCH  39  40
ATOM     40  O   UNL     1       5.602  -3.123   0.000  1.00  0.00    -0.394 OA
ATOM     41  H   UNL     1       0.000   0.000   0.000  1.00  0.00     0.210 HD
ENDBRANCH  39  40
ENDBRANCH  34  39
BRANCH  35  42
ATOM     42  O   UNL     1       9.995   1.720   0.000  1.00  0.00    -0.387 OA
ATOM     43  H   UNL     1       0.000   0.000   0.000  1.00  0.00     0.211 HD
ENDBRANCH  35  42
BRANCH  36  44
ATOM     44  O   UNL     1       9.701  -1.266   0.000  1.00  0.00    -0.387 OA
ATOM     45  H   UNL     1       0.000   0.000   0.000  1.00  0.00     0.211 HD
ENDBRANCH  36  44
ENDBRANCH  30  31
ENDBRANCH  10  30
TORSDOF 13
