REMARK SMILES CC(C)=CCc1c2c(c(O)c3c1O[C@H](c1ccc(O)cc1)CC3=O)C=CC(C)(C)O2
REMARK SMILES IDX 6 1 7 2 30 3 27 4 28 5 29 6 26 7 25 8 8 9 9 10 11 11 12 12
REMARK SMILES IDX 13 13 14 14 22 15 23 16 24 17 5 18 4 19 2 20 1 21 3 22 10 23
REMARK SMILES IDX 15 25 16 26 21 27 17 28 20 29 18 30 19 31
REMARK H PARENT 10 24 19 32
ROOT
ATOM      1  C   UNL     1       1.432  -0.604   0.000  1.00  0.00     0.042 A 
ATOM      2  C   UNL     1       2.874  -0.192   0.000  1.00  0.00     0.138 A 
ATOM      3  O   UNL     1       3.952  -1.236   0.000  1.00  0.00    -0.483 OA
ATOM      4  C   UNL     1       5.394  -0.825   0.000  1.00  0.00     0.122 C 
ATOM      5  C   UNL     1       6.891  -0.932   0.000  1.00  0.00     0.061 C 
ATOM      6  C   UNL     1       5.549  -2.317   0.000  1.00  0.00     0.061 C 
ATOM      7  C   UNL     1       5.760   0.630   0.000  1.00  0.00     0.021 C 
ATOM      8  C   UNL     1       4.682   1.674   0.000  1.00  0.00     0.015 C 
ATOM      9  C   UNL     1       3.240   1.262   0.000  1.00  0.00     0.060 A 
ATOM     10  C   UNL     1       2.162   2.306   0.000  1.00  0.00     0.141 A 
ATOM     11  C   UNL     1       0.720   1.895   0.000  1.00  0.00     0.103 A 
ATOM     12  C   UNL     1       0.355   0.440   0.000  1.00  0.00     0.142 A 
ATOM     13  O   UNL     1      -1.088   0.029   0.000  1.00  0.00    -0.484 OA
ATOM     14  C   UNL     1      -2.165   1.073   0.000  1.00  0.00     0.211 C 
ATOM     15  C   UNL     1      -1.800   2.528   0.000  1.00  0.00     0.131 C 
ATOM     16  C   UNL     1      -0.357   2.939   0.000  1.00  0.00     0.174 C 
ATOM     17  O   UNL     1       0.008   4.394   0.000  1.00  0.00    -0.294 OA
ENDROOT
BRANCH   1  18
ATOM     18  C   UNL     1       1.067  -2.058   0.000  1.00  0.00     0.070 C 
BRANCH  18  19
ATOM     19  C   UNL     1      -0.376  -2.470   0.000  1.00  0.00    -0.023 C 
BRANCH  19  20
ATOM     20  C   UNL     1      -0.741  -3.924   0.000  1.00  0.00    -0.080 C 
ATOM     21  C   UNL     1      -2.184  -4.335   0.000  1.00  0.00     0.039 C 
ATOM     22  C   UNL     1       0.336  -4.968   0.000  1.00  0.00     0.039 C 
ENDBRANCH  19  20
ENDBRANCH  18  19
ENDBRANCH   1  18
BRANCH  10  23
ATOM     23  O   UNL     1       2.528   3.761   0.000  1.00  0.00    -0.506 OA
ATOM     24  H   UNL     1       0.000   0.000   0.000  1.00  0.00     0.293 HD
ENDBRANCH  10  23
BRANCH  14  25
ATOM     25  C   UNL     1      -3.608   0.662   0.000  1.00  0.00    -0.007 A 
ATOM     26  C   UNL     1      -4.685   1.705   0.000  1.00  0.00     0.011 A 
ATOM     27  C   UNL     1      -3.973  -0.793   0.000  1.00  0.00     0.011 A 
ATOM     28  C   UNL     1      -6.128   1.294   0.000  1.00  0.00     0.046 A 
ATOM     29  C   UNL     1      -5.416  -1.204   0.000  1.00  0.00     0.046 A 
ATOM     30  C   UNL     1      -6.493  -0.161   0.000  1.00  0.00     0.115 A 
BRANCH  30  31
ATOM     31  O   UNL     1      -7.936  -0.572   0.000  1.00  0.00    -0.508 OA
ATOM     32  H   UNL     1       0.000   0.000   0.000  1.00  0.00     0.293 HD
ENDBRANCH  30  31
ENDBRANCH  14  25
TORSDOF 6
