REMARK SMILES CC[C@H](C)/C=C/C1=CC2=C(Cl)C(=O)C3OC(=O)C(C(=O)[C@@H](C)[C@H](C)OC(=O)[C@H](OC)c4ccccc4)=C3C2=CO1
REMARK SMILES IDX 19 1 20 2 18 3 7 4 8 5 40 6 9 7 39 8 10 9 38 10 12 11 37 12
REMARK SMILES IDX 14 13 15 14 16 15 11 16 13 17 17 18 6 19 5 20 3 21 4 22 2 23
REMARK SMILES IDX 1 24 21 25 22 26 23 27 24 28 25 29 26 30 27 31 28 32 29 33
REMARK SMILES IDX 30 34 31 35 32 36 36 37 33 38 35 39 34 40
REMARK H PARENT
ROOT
ATOM      1  C   UNL     1       0.104   1.324   0.000  1.00  0.00     0.177 C 
ATOM      2  O   UNL     1      -0.380  -0.096   0.000  1.00  0.00    -0.293 OA
ENDROOT
BRANCH   1   3
ATOM      3  C   UNL     1      -0.883   2.453   0.000  1.00  0.00     0.111 C 
ATOM      4  C   UNL     1      -5.075  -1.282   0.000  1.00  0.00     0.126 C 
ATOM      5  C   UNL     1      -5.665   0.097   0.000  1.00  0.00     0.057 C 
ATOM      6  O   UNL     1      -3.586  -1.461   0.000  1.00  0.00    -0.464 OA
ATOM      7  C   UNL     1      -4.766   1.297   0.000  1.00  0.00     0.011 C 
ATOM      8  C   UNL     1      -2.687  -0.261   0.000  1.00  0.00     0.204 C 
ATOM      9  C   UNL     1      -5.355   2.677   0.000  1.00  0.00     0.096 C 
ATOM     10  C   UNL     1      -3.276   1.119   0.000  1.00  0.00     0.027 C 
ATOM     11  C   UNL     1      -4.456   3.877   0.000  1.00  0.00     0.220 C 
ATOM     12  C   UNL     1      -2.377   2.319   0.000  1.00  0.00     0.030 C 
ATOM     13  C   UNL     1      -2.966   3.698   0.000  1.00  0.00     0.281 C 
ATOM     14  O   UNL     1      -1.837   4.685   0.000  1.00  0.00    -0.445 OA
ATOM     15  C   UNL     1      -0.549   3.916   0.000  1.00  0.00     0.343 C 
ATOM     16  Cl  UNL     1      -6.845   2.856   0.000  1.00  0.00    -0.080 Cl
ATOM     17  O   UNL     1      -5.045   5.256   0.000  1.00  0.00    -0.289 OA
ATOM     18  O   UNL     1       0.830   4.506   0.000  1.00  0.00    -0.246 OA
BRANCH   4  19
ATOM     19  C   UNL     1      -5.975  -2.482   0.000  1.00  0.00     0.043 C 
BRANCH  19  20
ATOM     20  C   UNL     1      -5.385  -3.862   0.000  1.00  0.00    -0.020 C 
BRANCH  20  21
ATOM     21  C   UNL     1      -6.285  -5.062   0.000  1.00  0.00     0.008 C 
ATOM     22  C   UNL     1      -5.695  -6.441   0.000  1.00  0.00     0.012 C 
BRANCH  21  23
ATOM     23  C   UNL     1      -7.774  -4.883   0.000  1.00  0.00     0.004 C 
ATOM     24  C   UNL     1      -8.674  -6.083   0.000  1.00  0.00     0.004 C 
ENDBRANCH  21  23
ENDBRANCH  20  21
ENDBRANCH  19  20
ENDBRANCH   4  19
ENDBRANCH   1   3
BRANCH   1  25
ATOM     25  C   UNL     1       1.576   1.614   0.000  1.00  0.00     0.099 C 
ATOM     26  C   UNL     1       2.061   3.034   0.000  1.00  0.00     0.020 C 
BRANCH  25  27
ATOM     27  C   UNL     1       2.563   0.484   0.000  1.00  0.00     0.184 C 
ATOM     28  C   UNL     1       2.079  -0.935   0.000  1.00  0.00     0.054 C 
BRANCH  27  29
ATOM     29  O   UNL     1       4.035   0.775   0.000  1.00  0.00    -0.460 OA
BRANCH  29  30
ATOM     30  C   UNL     1       5.022  -0.355   0.000  1.00  0.00     0.340 C 
ATOM     31  O   UNL     1       4.537  -1.774   0.000  1.00  0.00    -0.249 OA
BRANCH  30  32
ATOM     32  C   UNL     1       6.494  -0.065   0.000  1.00  0.00     0.257 C 
BRANCH  32  33
ATOM     33  O   UNL     1       6.978   1.355   0.000  1.00  0.00    -0.365 OA
ATOM     34  C   UNL     1       8.450   1.645   0.000  1.00  0.00     0.196 C 
ENDBRANCH  32  33
BRANCH  32  35
ATOM     35  C   UNL     1       7.481  -1.194   0.000  1.00  0.00    -0.008 A 
ATOM     36  C   UNL     1       6.996  -2.614   0.000  1.00  0.00     0.007 A 
ATOM     37  C   UNL     1       8.952  -0.904   0.000  1.00  0.00     0.007 A 
ATOM     38  C   UNL     1       7.983  -3.743   0.000  1.00  0.00     0.000 A 
ATOM     39  C   UNL     1       9.939  -2.034   0.000  1.00  0.00     0.000 A 
ATOM     40  C   UNL     1       9.455  -3.453   0.000  1.00  0.00     0.000 A 
ENDBRANCH  32  35
ENDBRANCH  30  32
ENDBRANCH  29  30
ENDBRANCH  27  29
ENDBRANCH  25  27
ENDBRANCH   1  25
TORSDOF 12
