REMARK SMILES O=c1c2ccccc2oc2ccc3c(c12)OCO3
REMARK SMILES IDX 1 1 2 2 3 3 4 4 5 5 6 6 7 7 8 8 9 9 10 10 11 11 12 12 13 13
REMARK SMILES IDX 18 14 17 15 16 16 14 17 15 18
REMARK H PARENT
ROOT
ATOM      1  O   UNL     1       0.125  -2.490   0.000  1.00  0.00    -0.288 OA
ATOM      2  C   UNL     1       0.464  -1.029   0.000  1.00  0.00     0.204 A 
ATOM      3  C   UNL     1       1.899  -0.592   0.000  1.00  0.00     0.065 A 
ATOM      4  C   UNL     1       2.995  -1.616   0.000  1.00  0.00     0.016 A 
ATOM      5  C   UNL     1       4.430  -1.179   0.000  1.00  0.00     0.001 A 
ATOM      6  C   UNL     1       4.769   0.283   0.000  1.00  0.00     0.004 A 
ATOM      7  C   UNL     1       3.673   1.307   0.000  1.00  0.00     0.048 A 
ATOM      8  C   UNL     1       2.238   0.870   0.000  1.00  0.00     0.138 A 
ATOM      9  O   UNL     1       1.142   1.893   0.000  1.00  0.00    -0.456 OA
ATOM     10  C   UNL     1      -0.293   1.456   0.000  1.00  0.00     0.142 A 
ATOM     11  C   UNL     1      -1.389   2.480   0.000  1.00  0.00     0.052 A 
ATOM     12  C   UNL     1      -2.824   2.043   0.000  1.00  0.00     0.054 A 
ATOM     13  C   UNL     1      -3.163   0.582   0.000  1.00  0.00     0.166 A 
ATOM     14  O   UNL     1      -4.475  -0.144   0.000  1.00  0.00    -0.454 OA
ATOM     15  C   UNL     1      -4.191  -1.617   0.000  1.00  0.00     0.468 C 
ATOM     16  O   UNL     1      -2.702  -1.801   0.000  1.00  0.00    -0.453 OA
ATOM     17  C   UNL     1      -2.067  -0.442   0.000  1.00  0.00     0.180 A 
ATOM     18  C   UNL     1      -0.632  -0.005   0.000  1.00  0.00     0.111 A 
ENDROOT
TORSDOF 0
