REMARK SMILES COC(=O)C1=CO[C@@H](O[C@@H]2O[C@H](CO)[C@@H](O)[C@H](O)[C@H]2O)[C@@H]2C(CO)=CC[C@H]12
REMARK SMILES IDX 9 1 8 2 5 3 6 4 27 5 7 6 26 7 21 8 25 9 22 10 3 11 4 12 2 13
REMARK SMILES IDX 1 14 23 15 24 16 10 18 11 19 19 20 12 21 17 22 15 23 20 24
REMARK SMILES IDX 13 26 14 27 18 29 16 31
REMARK H PARENT 24 17 20 25 14 28 18 30 16 32
ROOT
ATOM      1  O   UNL     1       0.883  -1.133   0.000  1.00  0.00    -0.310 OA
ENDROOT
BRANCH   1   2
ATOM      2  C   UNL     1      -0.462  -0.469   0.000  1.00  0.00     0.316 C 
ATOM      3  C   UNL     1      -3.152   0.860   0.000  1.00  0.00     0.076 C 
ATOM      4  C   UNL     1      -1.905   1.692   0.000  1.00  0.00     0.202 C 
ATOM      5  C   UNL     1      -3.055  -0.637   0.000  1.00  0.00     0.047 C 
ATOM      6  O   UNL     1      -0.560   1.028   0.000  1.00  0.00    -0.471 OA
ATOM      7  C   UNL     1      -4.102  -1.711   0.000  1.00  0.00     0.037 C 
ATOM      8  C   UNL     1      -1.710  -1.301   0.000  1.00  0.00     0.094 C 
ATOM      9  C   UNL     1      -3.405  -3.039   0.000  1.00  0.00    -0.024 C 
ATOM     10  C   UNL     1      -1.926  -2.786   0.000  1.00  0.00    -0.039 C 
BRANCH   3  11
ATOM     11  C   UNL     1      -4.497   1.524   0.000  1.00  0.00     0.337 C 
ATOM     12  O   UNL     1      -5.745   0.691   0.000  1.00  0.00    -0.246 OA
BRANCH  11  13
ATOM     13  O   UNL     1      -4.595   3.021   0.000  1.00  0.00    -0.466 OA
ATOM     14  C   UNL     1      -5.939   3.685   0.000  1.00  0.00     0.282 C 
ENDBRANCH  11  13
ENDBRANCH   3  11
BRANCH  10  15
ATOM     15  C   UNL     1      -0.852  -3.833   0.000  1.00  0.00     0.187 C 
BRANCH  15  16
ATOM     16  O   UNL     1      -1.222  -5.287   0.000  1.00  0.00    -0.392 OA
ATOM     17  H   UNL     1       0.000   0.000   0.000  1.00  0.00     0.211 HD
ENDBRANCH  15  16
ENDBRANCH  10  15
ENDBRANCH   1   2
BRANCH   1  18
ATOM     18  C   UNL     1       2.130  -0.300   0.000  1.00  0.00     0.286 C 
ATOM     19  O   UNL     1       3.475  -0.964   0.000  1.00  0.00    -0.341 OA
ATOM     20  C   UNL     1       2.033   1.197   0.000  1.00  0.00     0.202 C 
ATOM     21  C   UNL     1       4.723  -0.131   0.000  1.00  0.00     0.178 C 
ATOM     22  C   UNL     1       3.281   2.030   0.000  1.00  0.00     0.179 C 
ATOM     23  C   UNL     1       4.625   1.365   0.000  1.00  0.00     0.177 C 
BRANCH  20  24
ATOM     24  O   UNL     1       0.688   1.861   0.000  1.00  0.00    -0.385 OA
ATOM     25  H   UNL     1       0.000   0.000   0.000  1.00  0.00     0.211 HD
ENDBRANCH  20  24
BRANCH  21  26
ATOM     26  C   UNL     1       6.068  -0.796   0.000  1.00  0.00     0.191 C 
BRANCH  26  27
ATOM     27  O   UNL     1       6.165  -2.292   0.000  1.00  0.00    -0.394 OA
ATOM     28  H   UNL     1       0.000   0.000   0.000  1.00  0.00     0.210 HD
ENDBRANCH  26  27
ENDBRANCH  21  26
BRANCH  22  29
ATOM     29  O   UNL     1       3.183   3.526   0.000  1.00  0.00    -0.387 OA
ATOM     30  H   UNL     1       0.000   0.000   0.000  1.00  0.00     0.211 HD
ENDBRANCH  22  29
BRANCH  23  31
ATOM     31  O   UNL     1       5.873   2.198   0.000  1.00  0.00    -0.387 OA
ATOM     32  H   UNL     1       0.000   0.000   0.000  1.00  0.00     0.211 HD
ENDBRANCH  23  31
ENDBRANCH   1  18
TORSDOF 11
