REMARK SMILES COc1cc(C[C@H](C)[C@H](C)C(=O)c2ccc3c(c2)OCO3)ccc1O
REMARK SMILES IDX 6 1 5 2 3 3 4 4 24 5 23 6 22 7 2 8 1 9 25 10 7 12 8 13 9 14
REMARK SMILES IDX 10 15 11 16 12 17 13 18 14 19 18 20 15 21 17 22 16 23 19 24
REMARK SMILES IDX 21 25 20 26
REMARK H PARENT 25 11
ROOT
ATOM      1  C   UNL     1       0.144   1.255   0.000  1.00  0.00     0.039 C 
ENDROOT
BRANCH   1   2
ATOM      2  C   UNL     1       1.585   0.839   0.000  1.00  0.00    -0.044 A 
ATOM      3  C   UNL     1       3.386  -1.034   0.000  1.00  0.00     0.160 A 
ATOM      4  C   UNL     1       1.945  -0.618   0.000  1.00  0.00     0.054 A 
ATOM      5  C   UNL     1       4.467   0.006   0.000  1.00  0.00     0.157 A 
ATOM      6  C   UNL     1       4.107   1.462   0.000  1.00  0.00     0.050 A 
ATOM      7  C   UNL     1       2.666   1.878   0.000  1.00  0.00     0.008 A 
BRANCH   3   8
ATOM      8  O   UNL     1       3.746  -2.490   0.000  1.00  0.00    -0.493 OA
ATOM      9  C   UNL     1       2.665  -3.530   0.000  1.00  0.00     0.278 C 
ENDBRANCH   3   8
BRANCH   5  10
ATOM     10  O   UNL     1       5.908  -0.410   0.000  1.00  0.00    -0.504 OA
ATOM     11  H   UNL     1       0.000   0.000   0.000  1.00  0.00     0.293 HD
ENDBRANCH   5  10
ENDBRANCH   1   2
BRANCH   1  12
ATOM     12  C   UNL     1      -0.216   2.711   0.000  1.00  0.00     0.001 C 
ATOM     13  C   UNL     1       0.865   3.751   0.000  1.00  0.00     0.009 C 
BRANCH  12  14
ATOM     14  C   UNL     1      -1.657   3.128   0.000  1.00  0.00     0.061 C 
ATOM     15  C   UNL     1      -2.017   4.584   0.000  1.00  0.00     0.016 C 
BRANCH  14  16
ATOM     16  C   UNL     1      -2.738   2.088   0.000  1.00  0.00     0.166 C 
ATOM     17  O   UNL     1      -4.179   2.504   0.000  1.00  0.00    -0.294 OA
BRANCH  16  18
ATOM     18  C   UNL     1      -2.378   0.632   0.000  1.00  0.00     0.022 A 
ATOM     19  C   UNL     1      -0.937   0.215   0.000  1.00  0.00     0.016 A 
ATOM     20  C   UNL     1      -3.459  -0.408   0.000  1.00  0.00     0.062 A 
ATOM     21  C   UNL     1      -0.577  -1.241   0.000  1.00  0.00     0.051 A 
ATOM     22  C   UNL     1      -3.099  -1.864   0.000  1.00  0.00     0.166 A 
ATOM     23  C   UNL     1      -1.658  -2.281   0.000  1.00  0.00     0.165 A 
ATOM     24  O   UNL     1      -3.941  -3.106   0.000  1.00  0.00    -0.454 OA
ATOM     25  O   UNL     1      -1.609  -3.780   0.000  1.00  0.00    -0.454 OA
ATOM     26  C   UNL     1      -3.020  -4.290   0.000  1.00  0.00     0.468 C 
ENDBRANCH  16  18
ENDBRANCH  14  16
ENDBRANCH  12  14
ENDBRANCH   1  12
TORSDOF 7
