REMARK SMILES COc1cc(OC)c(-c2coc3cc(O)c(OC)c(O)c3c2=O)cc1OC
REMARK SMILES IDX 9 1 10 2 11 3 12 4 13 5 14 6 16 7 19 8 21 9 22 10 23 11 8 12
REMARK SMILES IDX 3 13 4 14 25 15 5 16 24 17 2 18 1 19 26 20 27 21 6 22 7 23
REMARK SMILES IDX 20 24 17 26 18 27 15 28
REMARK H PARENT 20 25 15 29
ROOT
ATOM      1  C   UNL     1      -0.397  -0.787   0.000  1.00  0.00     0.069 A 
ATOM      2  C   UNL     1      -0.031  -2.242   0.000  1.00  0.00     0.208 A 
ATOM      3  O   UNL     1       1.412  -2.652   0.000  1.00  0.00    -0.463 OA
ATOM      4  C   UNL     1       2.489  -1.607   0.000  1.00  0.00     0.145 A 
ATOM      5  C   UNL     1       3.932  -2.018   0.000  1.00  0.00     0.098 A 
ATOM      6  C   UNL     1       5.008  -0.973   0.000  1.00  0.00     0.165 A 
ATOM      7  C   UNL     1       4.642   0.482   0.000  1.00  0.00     0.203 A 
ATOM      8  C   UNL     1       3.199   0.892   0.000  1.00  0.00     0.176 A 
ATOM      9  C   UNL     1       2.122  -0.153   0.000  1.00  0.00     0.111 A 
ATOM     10  C   UNL     1       0.679   0.257   0.000  1.00  0.00     0.204 A 
ATOM     11  O   UNL     1       0.313   1.712   0.000  1.00  0.00    -0.288 OA
ENDROOT
BRANCH   1  12
ATOM     12  C   UNL     1      -1.840  -0.378   0.000  1.00  0.00     0.035 A 
ATOM     13  C   UNL     1      -4.726   0.443   0.000  1.00  0.00     0.164 A 
ATOM     14  C   UNL     1      -3.649   1.487   0.000  1.00  0.00     0.097 A 
ATOM     15  C   UNL     1      -4.359  -1.012   0.000  1.00  0.00     0.161 A 
ATOM     16  C   UNL     1      -2.206   1.077   0.000  1.00  0.00     0.130 A 
ATOM     17  C   UNL     1      -2.916  -1.422   0.000  1.00  0.00     0.063 A 
BRANCH  13  18
ATOM     18  O   UNL     1      -6.168   0.853   0.000  1.00  0.00    -0.493 OA
ATOM     19  C   UNL     1      -6.535   2.307   0.000  1.00  0.00     0.278 C 
ENDBRANCH  13  18
BRANCH  15  20
ATOM     20  O   UNL     1      -5.436  -2.057   0.000  1.00  0.00    -0.493 OA
ATOM     21  C   UNL     1      -5.069  -3.511   0.000  1.00  0.00     0.278 C 
ENDBRANCH  15  20
BRANCH  16  22
ATOM     22  O   UNL     1      -1.130   2.122   0.000  1.00  0.00    -0.496 OA
ATOM     23  C   UNL     1      -1.496   3.576   0.000  1.00  0.00     0.278 C 
ENDBRANCH  16  22
ENDBRANCH   1  12
BRANCH   8  24
ATOM     24  O   UNL     1       2.833   2.346   0.000  1.00  0.00    -0.504 OA
ATOM     25  H   UNL     1       0.000   0.000   0.000  1.00  0.00     0.293 HD
ENDBRANCH   8  24
BRANCH   7  26
ATOM     26  O   UNL     1       5.718   1.526   0.000  1.00  0.00    -0.490 OA
ATOM     27  C   UNL     1       7.161   1.116   0.000  1.00  0.00     0.278 C 
ENDBRANCH   7  26
BRANCH   6  28
ATOM     28  O   UNL     1       6.451  -1.383   0.000  1.00  0.00    -0.504 OA
ATOM     29  H   UNL     1       0.000   0.000   0.000  1.00  0.00     0.293 HD
ENDBRANCH   6  28
TORSDOF 7
