REMARK SMILES C=CCc1ccc(O)c(OC)c1
REMARK SMILES IDX 4 1 5 2 6 3 7 4 9 5 12 6 3 7 2 8 1 9 10 10 11 11 8 12
REMARK H PARENT 8 13
ROOT
ATOM      1  C   UNL     1      -0.987  -0.103   0.000  1.00  0.00    -0.040 A 
ATOM      2  C   UNL     1      -0.858   1.391   0.000  1.00  0.00     0.008 A 
ATOM      3  C   UNL     1       0.501   2.027   0.000  1.00  0.00     0.050 A 
ATOM      4  C   UNL     1       1.731   1.168   0.000  1.00  0.00     0.157 A 
ATOM      5  C   UNL     1       1.602  -0.327   0.000  1.00  0.00     0.160 A 
ATOM      6  C   UNL     1       0.243  -0.962   0.000  1.00  0.00     0.054 A 
ENDROOT
BRANCH   1   7
ATOM      7  C   UNL     1      -2.346  -0.738   0.000  1.00  0.00     0.062 C 
BRANCH   7   8
ATOM      8  C   UNL     1      -3.575   0.121   0.000  1.00  0.00    -0.030 C 
ATOM      9  C   UNL     1      -4.934  -0.515   0.000  1.00  0.00     0.004 C 
ENDBRANCH   7   8
ENDBRANCH   1   7
BRANCH   5  10
ATOM     10  O   UNL     1       2.831  -1.186   0.000  1.00  0.00    -0.493 OA
ATOM     11  C   UNL     1       2.702  -2.680   0.000  1.00  0.00     0.278 C 
ENDBRANCH   5  10
BRANCH   4  12
ATOM     12  O   UNL     1       3.090   1.803   0.000  1.00  0.00    -0.504 OA
ATOM     13  H   UNL     1       0.000   0.000   0.000  1.00  0.00     0.293 HD
ENDBRANCH   4  12
TORSDOF 4
