REMARK SMILES CC1=C[C@]2(O)C(=O)[C@H](C)C[C@@H]3[C@H](CC[C@](C)(O)C[C@H]2C1=O)C3(C)C
REMARK SMILES IDX 6 1 7 2 4 3 2 4 3 5 20 6 19 7 1 8 21 9 5 10 18 12 15 13
REMARK SMILES IDX 16 14 17 16 8 18 9 19 10 20 11 21 12 22 22 23 23 24 24 25
REMARK SMILES IDX 13 26 14 27
REMARK H PARENT 5 11 17 17
REMARK Flexibility Score:   42.900
ROOT
ATOM      1  C   UNL     1      -0.678  -2.022   0.000  1.00  0.00     0.171 C 
ATOM      2  O   UNL     1      -1.471  -3.295   0.000  1.00  0.00    -0.296 OA
ENDROOT
BRANCH   1   3
ATOM      3  C   UNL     1      -1.677  -0.902   0.000  1.00  0.00     0.152 C 
ATOM      4  C   UNL     1      -4.074  -0.523   0.000  1.00  0.00    -0.008 C 
ATOM      5  C   UNL     1      -3.013  -1.583   0.000  1.00  0.00     0.023 C 
ATOM      6  C   UNL     1      -3.393   0.814   0.000  1.00  0.00     0.165 C 
ATOM      7  C   UNL     1      -1.911   0.579   0.000  1.00  0.00     0.107 C 
ATOM      8  C   UNL     1      -5.555  -0.757   0.000  1.00  0.00     0.048 C 
ATOM      9  O   UNL     1      -4.074   2.150   0.000  1.00  0.00    -0.294 OA
BRANCH   3  10
ATOM     10  O   UNL     1      -1.954  -2.377   0.000  1.00  0.00    -0.377 OA
ATOM     11  H   UNL     1       0.000   0.000   0.000  1.00  0.00     0.212 HD
ENDBRANCH   3  10
BRANCH   7  12
ATOM     12  C   UNL     1      -1.308   1.952   0.000  1.00  0.00     0.050 C 
BRANCH  12  13
ATOM     13  C   UNL     1      -0.057   2.781   0.000  1.00  0.00     0.063 CG0
ATOM     14  C   UNL     1       0.413   4.205   0.000  1.00  0.00     0.042 C 
ATOM     15  G   UNL     1       1.442   2.802   0.000  1.00  0.00     0.000 G0
BRANCH  13  16
ATOM     16  O   UNL     1      -1.250   3.691   0.000  1.00  0.00    -0.390 OA
ATOM     17  H   UNL     1       0.000   0.000   0.000  1.00  0.00     0.211 HD
ENDBRANCH  13  16
ENDBRANCH  12  13
ENDBRANCH   7  12
ENDBRANCH   1   3
BRANCH   1  18
ATOM     18  C   UNL     1       0.767  -2.424   0.000  1.00  0.00     0.057 C 
ATOM     19  C   UNL     1       0.788  -3.924   0.000  1.00  0.00     0.016 C 
BRANCH  18  20
ATOM     20  C   UNL     1       2.200  -1.981   0.000  1.00  0.00     0.015 C 
BRANCH  20  21
ATOM     21  C   UNL     1       3.166  -0.834   0.000  1.00  0.00    -0.001 C 
ATOM     22  C   UNL     1       3.358   0.654   0.000  1.00  0.00    -0.001 C 
ATOM     23  C   UNL     1       4.550  -0.256   0.000  1.00  0.00    -0.029 C 
ATOM     24  C   UNL     1       5.654   0.760   0.000  1.00  0.00     0.011 C 
ATOM     25  C   UNL     1       5.359  -1.520   0.000  1.00  0.00     0.011 C 
BRANCH  22  26
ATOM     26  C   UNL     1       2.716   2.009   0.000  1.00  0.00     0.007 C 
BRANCH  26  27
ATOM     27  C   UNL     1       1.442   2.802   0.000  1.00  0.00     0.035 CG0
ATOM     28  G   UNL     1      -0.057   2.781   0.000  1.00  0.00     0.000 G0
ENDBRANCH  26  27
ENDBRANCH  22  26
ENDBRANCH  20  21
ENDBRANCH  18  20
ENDBRANCH   1  18
TORSDOF 2
