REMARK SMILES C=CC1C(Cc2nc(C(=O)O)cc3c2[nH]c2ccccc23)C(C(=O)OC)=CO[C@H]1O[C@@H]1O[C@H](CO)[C@@H](O)[C@H](O)[C@H]1O
REMARK SMILES IDX 3 1 4 2 22 3 27 4 28 5 29 6 2 7 1 8 5 9 6 10 7 11 14 12 8 13
REMARK SMILES IDX 13 14 15 15 12 16 21 17 16 18 20 19 17 20 19 21 18 22 9 24
REMARK SMILES IDX 10 25 11 26 30 28 31 29 32 30 40 31 33 32 38 33 36 34 41 35
REMARK SMILES IDX 34 37 35 38 39 40 37 42 23 44 24 45 25 46 26 47
REMARK H PARENT 15 23 11 27 41 36 35 39 39 41 37 43
ROOT
ATOM      1  C   UNL     1      -0.450  -0.379   0.000  1.00  0.00     0.089 C 
ATOM      2  C   UNL     1       0.394  -1.619   0.000  1.00  0.00     0.049 C 
ATOM      3  C   UNL     1      -0.259  -2.970   0.000  1.00  0.00     0.076 C 
ATOM      4  C   UNL     1      -1.755  -3.080   0.000  1.00  0.00     0.202 C 
ATOM      5  O   UNL     1      -2.598  -1.840   0.000  1.00  0.00    -0.471 OA
ATOM      6  C   UNL     1      -1.946  -0.489   0.000  1.00  0.00     0.316 C 
ENDROOT
BRANCH   1   7
ATOM      7  C   UNL     1       0.203   0.972   0.000  1.00  0.00    -0.024 C 
ATOM      8  C   UNL     1      -0.640   2.212   0.000  1.00  0.00     0.004 C 
ENDBRANCH   1   7
BRANCH   2   9
ATOM      9  C   UNL     1       1.890  -1.509   0.000  1.00  0.00     0.068 C 
BRANCH   9  10
ATOM     10  C   UNL     1       2.542  -0.159   0.000  1.00  0.00     0.066 A 
ATOM     11  N   UNL     1       1.699   1.082   0.000  1.00  0.00    -0.244 NA
ATOM     12  C   UNL     1       4.038  -0.049   0.000  1.00  0.00     0.068 A 
ATOM     13  C   UNL     1       2.351   2.433   0.000  1.00  0.00     0.149 A 
ATOM     14  C   UNL     1       4.691   1.302   0.000  1.00  0.00     0.012 A 
ATOM     15  N   UNL     1       5.121  -1.087   0.000  1.00  0.00    -0.353 N 
ATOM     16  C   UNL     1       3.847   2.543   0.000  1.00  0.00     0.047 A 
ATOM     17  C   UNL     1       6.177   1.099   0.000  1.00  0.00     0.007 A 
ATOM     18  C   UNL     1       6.443  -0.377   0.000  1.00  0.00     0.046 A 
ATOM     19  C   UNL     1       7.322   2.067   0.000  1.00  0.00     0.011 A 
ATOM     20  C   UNL     1       7.854  -0.885   0.000  1.00  0.00     0.027 A 
ATOM     21  C   UNL     1       8.734   1.559   0.000  1.00  0.00     0.001 A 
ATOM     22  C   UNL     1       9.000   0.083   0.000  1.00  0.00     0.002 A 
ATOM     23  H   UNL     1       0.000   0.000   0.000  1.00  0.00     0.167 HD
BRANCH  13  24
ATOM     24  C   UNL     1       1.508   3.673   0.000  1.00  0.00     0.354 C 
ATOM     25  O   UNL     1       0.012   3.563   0.000  1.00  0.00    -0.245 OA
BRANCH  24  26
ATOM     26  O   UNL     1       2.161   5.024   0.000  1.00  0.00    -0.477 OA
ATOM     27  H   UNL     1       0.000   0.000   0.000  1.00  0.00     0.297 HD
ENDBRANCH  24  26
ENDBRANCH  13  24
ENDBRANCH   9  10
ENDBRANCH   2   9
BRANCH   6  28
ATOM     28  O   UNL     1      -2.789   0.751   0.000  1.00  0.00    -0.310 OA
BRANCH  28  29
ATOM     29  C   UNL     1      -4.285   0.641   0.000  1.00  0.00     0.286 C 
ATOM     30  O   UNL     1      -5.128   1.882   0.000  1.00  0.00    -0.341 OA
ATOM     31  C   UNL     1      -4.938  -0.709   0.000  1.00  0.00     0.202 C 
ATOM     32  C   UNL     1      -6.624   1.772   0.000  1.00  0.00     0.178 C 
ATOM     33  C   UNL     1      -6.434  -0.819   0.000  1.00  0.00     0.179 C 
ATOM     34  C   UNL     1      -7.277   0.421   0.000  1.00  0.00     0.177 C 
BRANCH  31  35
ATOM     35  O   UNL     1      -4.094  -1.950   0.000  1.00  0.00    -0.385 OA
ATOM     36  H   UNL     1       0.000   0.000   0.000  1.00  0.00     0.211 HD
ENDBRANCH  31  35
BRANCH  32  37
ATOM     37  C   UNL     1      -7.468   3.012   0.000  1.00  0.00     0.191 C 
BRANCH  37  38
ATOM     38  O   UNL     1      -6.815   4.363   0.000  1.00  0.00    -0.394 OA
ATOM     39  H   UNL     1       0.000   0.000   0.000  1.00  0.00     0.210 HD
ENDBRANCH  37  38
ENDBRANCH  32  37
BRANCH  33  40
ATOM     40  O   UNL     1      -7.086  -2.170   0.000  1.00  0.00    -0.387 OA
ATOM     41  H   UNL     1       0.000   0.000   0.000  1.00  0.00     0.211 HD
ENDBRANCH  33  40
BRANCH  34  42
ATOM     42  O   UNL     1      -8.773   0.311   0.000  1.00  0.00    -0.387 OA
ATOM     43  H   UNL     1       0.000   0.000   0.000  1.00  0.00     0.211 HD
ENDBRANCH  34  42
ENDBRANCH  28  29
ENDBRANCH   6  28
BRANCH   3  44
ATOM     44  C   UNL     1       0.584  -4.210   0.000  1.00  0.00     0.337 C 
ATOM     45  O   UNL     1       2.080  -4.100   0.000  1.00  0.00    -0.246 OA
BRANCH  44  46
ATOM     46  O   UNL     1      -0.068  -5.561   0.000  1.00  0.00    -0.466 OA
ATOM     47  C   UNL     1       0.775  -6.801   0.000  1.00  0.00     0.282 C 
ENDBRANCH  44  46
ENDBRANCH   3  44
TORSDOF 14
