REMARK SMILES CC(C)=CCCC(C)=CCOc1ccc(C(=O)O)cc1O
REMARK SMILES IDX 9 1 7 2 8 3 6 4 5 5 4 6 2 7 1 8 3 9 10 10 11 11 12 12 13 13
REMARK SMILES IDX 20 14 14 15 19 16 15 17 21 18 16 20 17 21 18 22
REMARK H PARENT 21 19 18 23
ROOT
ATOM      1  C   UNL     1      -1.537  -2.479   0.000  1.00  0.00     0.013 C 
ENDROOT
BRANCH   1   2
ATOM      2  C   UNL     1      -2.955  -1.989   0.000  1.00  0.00    -0.074 C 
ATOM      3  C   UNL     1      -4.088  -2.972   0.000  1.00  0.00     0.039 C 
BRANCH   2   4
ATOM      4  C   UNL     1      -3.239  -0.516   0.000  1.00  0.00     0.034 C 
BRANCH   4   5
ATOM      5  C   UNL     1      -4.657  -0.026   0.000  1.00  0.00     0.032 C 
BRANCH   5   6
ATOM      6  C   UNL     1      -4.941   1.447   0.000  1.00  0.00    -0.028 C 
BRANCH   6   7
ATOM      7  C   UNL     1      -6.359   1.937   0.000  1.00  0.00    -0.080 C 
ATOM      8  C   UNL     1      -6.643   3.410   0.000  1.00  0.00     0.039 C 
ATOM      9  C   UNL     1      -7.492   0.954   0.000  1.00  0.00     0.039 C 
ENDBRANCH   6   7
ENDBRANCH   5   6
ENDBRANCH   4   5
ENDBRANCH   2   4
ENDBRANCH   1   2
BRANCH   1  10
ATOM     10  C   UNL     1      -0.404  -1.497   0.000  1.00  0.00     0.257 C 
BRANCH  10  11
ATOM     11  O   UNL     1       1.014  -1.987   0.000  1.00  0.00    -0.486 OA
BRANCH  11  12
ATOM     12  C   UNL     1       2.147  -1.004   0.000  1.00  0.00     0.161 A 
ATOM     13  C   UNL     1       1.863   0.469   0.000  1.00  0.00     0.051 A 
ATOM     14  C   UNL     1       3.564  -1.494   0.000  1.00  0.00     0.158 A 
ATOM     15  C   UNL     1       2.996   1.451   0.000  1.00  0.00     0.020 A 
ATOM     16  C   UNL     1       4.698  -0.512   0.000  1.00  0.00     0.065 A 
ATOM     17  C   UNL     1       4.413   0.961   0.000  1.00  0.00     0.063 A 
BRANCH  14  18
ATOM     18  O   UNL     1       3.849  -2.967   0.000  1.00  0.00    -0.504 OA
ATOM     19  H   UNL     1       0.000   0.000   0.000  1.00  0.00     0.293 HD
ENDBRANCH  14  18
BRANCH  17  20
ATOM     20  C   UNL     1       5.547   1.944   0.000  1.00  0.00     0.335 C 
ATOM     21  O   UNL     1       5.263   3.417   0.000  1.00  0.00    -0.246 OA
BRANCH  20  22
ATOM     22  O   UNL     1       6.965   1.454   0.000  1.00  0.00    -0.478 OA
ATOM     23  H   UNL     1       0.000   0.000   0.000  1.00  0.00     0.297 HD
ENDBRANCH  20  22
ENDBRANCH  17  20
ENDBRANCH  11  12
ENDBRANCH  10  11
ENDBRANCH   1  10
TORSDOF 11
