REMARK SMILES COc1ccc(CCC(=O)c2c(OC)cc(OC)cc2OC(C)=O)cc1
REMARK SMILES IDX 8 1 7 2 6 3 3 4 4 5 26 6 5 7 25 8 2 9 1 10 9 11 10 12 11 13
REMARK SMILES IDX 12 14 20 15 15 16 19 17 16 18 13 19 14 20 21 21 22 22 23 23
REMARK SMILES IDX 24 24 17 25 18 26
REMARK H PARENT
ROOT
ATOM      1  C   UNL     1      -0.843   0.467   0.000  1.00  0.00     0.086 C 
ENDROOT
BRANCH   1   2
ATOM      2  C   UNL     1      -2.027   1.388   0.000  1.00  0.00     0.044 C 
BRANCH   2   3
ATOM      3  C   UNL     1      -3.417   0.824   0.000  1.00  0.00    -0.047 A 
ATOM      4  C   UNL     1      -6.196  -0.304   0.000  1.00  0.00     0.118 A 
ATOM      5  C   UNL     1      -5.990   1.181   0.000  1.00  0.00     0.046 A 
ATOM      6  C   UNL     1      -5.013  -1.226   0.000  1.00  0.00     0.046 A 
ATOM      7  C   UNL     1      -4.600   1.746   0.000  1.00  0.00     0.007 A 
ATOM      8  C   UNL     1      -3.623  -0.662   0.000  1.00  0.00     0.007 A 
BRANCH   4   9
ATOM      9  O   UNL     1      -7.586  -0.868   0.000  1.00  0.00    -0.497 OA
ATOM     10  C   UNL     1      -8.770   0.053   0.000  1.00  0.00     0.278 C 
ENDBRANCH   4   9
ENDBRANCH   2   3
ENDBRANCH   1   2
BRANCH   1  11
ATOM     11  C   UNL     1       0.547   1.031   0.000  1.00  0.00     0.170 C 
ATOM     12  O   UNL     1       0.753   2.517   0.000  1.00  0.00    -0.294 OA
BRANCH  11  13
ATOM     13  C   UNL     1       1.730   0.109   0.000  1.00  0.00     0.103 A 
ATOM     14  C   UNL     1       1.524  -1.377   0.000  1.00  0.00     0.137 A 
ATOM     15  C   UNL     1       3.120   0.673   0.000  1.00  0.00     0.149 A 
ATOM     16  C   UNL     1       2.707  -2.298   0.000  1.00  0.00     0.093 A 
ATOM     17  C   UNL     1       4.304  -0.248   0.000  1.00  0.00     0.094 A 
ATOM     18  C   UNL     1       4.097  -1.734   0.000  1.00  0.00     0.126 A 
BRANCH  14  19
ATOM     19  O   UNL     1       0.134  -1.941   0.000  1.00  0.00    -0.496 OA
ATOM     20  C   UNL     1      -0.072  -3.426   0.000  1.00  0.00     0.278 C 
ENDBRANCH  14  19
BRANCH  15  21
ATOM     21  O   UNL     1       3.326   2.159   0.000  1.00  0.00    -0.426 OA
BRANCH  21  22
ATOM     22  C   UNL     1       4.716   2.723   0.000  1.00  0.00     0.308 C 
ATOM     23  C   UNL     1       4.923   4.209   0.000  1.00  0.00     0.139 C 
ATOM     24  O   UNL     1       5.900   1.802   0.000  1.00  0.00    -0.252 OA
ENDBRANCH  21  22
ENDBRANCH  15  21
BRANCH  18  25
ATOM     25  O   UNL     1       5.281  -2.656   0.000  1.00  0.00    -0.496 OA
ATOM     26  C   UNL     1       5.074  -4.141   0.000  1.00  0.00     0.278 C 
ENDBRANCH  18  25
ENDBRANCH  11  13
ENDBRANCH   1  11
TORSDOF 9
