REMARK SMILES C=CC[C@@]1(OC)C=C2C(=C(OC)C1=O)O[C@H](c1cc(OC)c(OC)c(OC)c1)[C@H]2C
REMARK SMILES IDX 4 1 7 2 8 3 9 4 10 5 13 6 14 7 15 8 16 9 29 10 30 11 3 12
REMARK SMILES IDX 2 13 1 14 5 15 6 16 11 17 12 18 17 19 18 20 28 21 19 22
REMARK SMILES IDX 25 23 22 24 20 25 21 26 26 27 27 28 23 29 24 30
REMARK H PARENT
ROOT
ATOM      1  C   UNL     1       4.066   0.496   0.000  1.00  0.00     0.156 C 
ATOM      2  C   UNL     1       2.808   1.314   0.000  1.00  0.00     0.024 C 
ATOM      3  C   UNL     1       1.472   0.634   0.000  1.00  0.00     0.004 C 
ATOM      4  C   UNL     1       1.392  -0.864   0.000  1.00  0.00     0.169 C 
ATOM      5  C   UNL     1       2.650  -1.682   0.000  1.00  0.00     0.208 C 
ATOM      6  C   UNL     1       3.987  -1.002   0.000  1.00  0.00     0.237 C 
ATOM      7  O   UNL     1       5.244  -1.819   0.000  1.00  0.00    -0.287 OA
ATOM      8  O   UNL     1      -0.057  -1.252   0.000  1.00  0.00    -0.481 OA
ATOM      9  C   UNL     1      -0.873   0.007   0.000  1.00  0.00     0.211 C 
ATOM     10  C   UNL     1       0.072   1.172   0.000  1.00  0.00     0.065 C 
ATOM     11  C   UNL     1      -0.316   2.621   0.000  1.00  0.00     0.017 C 
ENDROOT
BRANCH   1  12
ATOM     12  C   UNL     1       5.527   0.158   0.000  1.00  0.00     0.075 C 
BRANCH  12  13
ATOM     13  C   UNL     1       6.551   1.255   0.000  1.00  0.00    -0.031 C 
ATOM     14  C   UNL     1       8.012   0.916   0.000  1.00  0.00     0.004 C 
ENDBRANCH  12  13
ENDBRANCH   1  12
BRANCH   1  15
ATOM     15  O   UNL     1       4.653   1.877   0.000  1.00  0.00    -0.365 OA
ATOM     16  C   UNL     1       6.142   2.059   0.000  1.00  0.00     0.196 C 
ENDBRANCH   1  15
BRANCH   5  17
ATOM     17  O   UNL     1       2.571  -3.180   0.000  1.00  0.00    -0.490 OA
ATOM     18  C   UNL     1       3.828  -3.997   0.000  1.00  0.00     0.278 C 
ENDBRANCH   5  17
BRANCH   9  19
ATOM     19  C   UNL     1      -2.371   0.086   0.000  1.00  0.00     0.001 A 
ATOM     20  C   UNL     1      -3.051   1.423   0.000  1.00  0.00     0.058 A 
ATOM     21  C   UNL     1      -3.189  -1.171   0.000  1.00  0.00     0.058 A 
ATOM     22  C   UNL     1      -4.549   1.502   0.000  1.00  0.00     0.165 A 
ATOM     23  C   UNL     1      -4.686  -1.092   0.000  1.00  0.00     0.165 A 
ATOM     24  C   UNL     1      -5.367   0.245   0.000  1.00  0.00     0.203 A 
BRANCH  22  25
ATOM     25  O   UNL     1      -5.229   2.839   0.000  1.00  0.00    -0.493 OA
ATOM     26  C   UNL     1      -4.412   4.097   0.000  1.00  0.00     0.278 C 
ENDBRANCH  22  25
BRANCH  23  27
ATOM     27  O   UNL     1      -5.504  -2.349   0.000  1.00  0.00    -0.493 OA
ATOM     28  C   UNL     1      -4.824  -3.686   0.000  1.00  0.00     0.278 C 
ENDBRANCH  23  27
BRANCH  24  29
ATOM     29  O   UNL     1      -6.865   0.324   0.000  1.00  0.00    -0.490 OA
ATOM     30  C   UNL     1      -7.682  -0.933   0.000  1.00  0.00     0.278 C 
ENDBRANCH  24  29
ENDBRANCH   9  19
TORSDOF 8
