REMARK SMILES C[C@H]1[C@H](C)CC[C@]2(CO)CC[C@]3(C)C(=CC[C@@H]4[C@@]5(C)CC[C@H](O)C(C)(C)[C@@H]5CC[C@]43C)[C@H]12
REMARK SMILES IDX 1 1 2 2 3 3 4 4 5 5 6 6 7 7 10 8 11 9 12 10 13 11 14 12
REMARK SMILES IDX 15 13 16 14 17 15 18 16 19 17 20 18 21 19 22 20 24 21 25 22
REMARK SMILES IDX 26 23 27 24 28 25 29 26 30 27 31 28 32 29 8 30 9 31 23 33
REMARK H PARENT 9 32 23 34
ROOT
ATOM      1  C   UNL     1      -3.265  -3.006   0.000  1.00  0.00     0.008 C 
ATOM      2  C   UNL     1      -3.957  -1.676   0.000  1.00  0.00    -0.004 C 
ATOM      3  C   UNL     1      -5.456  -1.609   0.000  1.00  0.00    -0.011 C 
ATOM      4  C   UNL     1      -6.262  -2.874   0.000  1.00  0.00     0.008 C 
ATOM      5  C   UNL     1      -6.148  -0.279   0.000  1.00  0.00     0.004 C 
ATOM      6  C   UNL     1      -5.341   0.986   0.000  1.00  0.00     0.010 C 
ATOM      7  C   UNL     1      -3.843   0.920   0.000  1.00  0.00     0.000 C 
ATOM      8  C   UNL     1      -3.036   2.185   0.000  1.00  0.00     0.011 C 
ATOM      9  C   UNL     1      -1.538   2.119   0.000  1.00  0.00     0.012 C 
ATOM     10  C   UNL     1      -0.846   0.788   0.000  1.00  0.00    -0.006 C 
ATOM     11  C   UNL     1      -0.154  -0.543   0.000  1.00  0.00     0.017 C 
ATOM     12  C   UNL     1      -1.652  -0.477   0.000  1.00  0.00    -0.064 C 
ATOM     13  C   UNL     1      -0.960  -1.808   0.000  1.00  0.00    -0.027 C 
ATOM     14  C   UNL     1       0.538  -1.874   0.000  1.00  0.00     0.032 C 
ATOM     15  C   UNL     1       1.345  -0.609   0.000  1.00  0.00     0.006 C 
ATOM     16  C   UNL     1       2.843  -0.675   0.000  1.00  0.00    -0.025 C 
ATOM     17  C   UNL     1       2.037  -1.940   0.000  1.00  0.00     0.012 C 
ATOM     18  C   UNL     1       3.535  -2.006   0.000  1.00  0.00     0.010 C 
ATOM     19  C   UNL     1       5.034  -2.072   0.000  1.00  0.00     0.033 C 
ATOM     20  C   UNL     1       5.840  -0.807   0.000  1.00  0.00     0.120 C 
ATOM     21  C   UNL     1       5.148   0.523   0.000  1.00  0.00    -0.006 C 
ATOM     22  C   UNL     1       4.953   2.011   0.000  1.00  0.00     0.014 C 
ATOM     23  C   UNL     1       6.579   0.974   0.000  1.00  0.00     0.014 C 
ATOM     24  C   UNL     1       3.650   0.589   0.000  1.00  0.00     0.003 C 
ATOM     25  C   UNL     1       2.958   1.920   0.000  1.00  0.00     0.005 C 
ATOM     26  C   UNL     1       1.459   1.986   0.000  1.00  0.00     0.008 C 
ATOM     27  C   UNL     1       0.653   0.722   0.000  1.00  0.00    -0.020 C 
ATOM     28  C   UNL     1      -0.039   2.053   0.000  1.00  0.00     0.012 C 
ATOM     29  C   UNL     1      -3.151  -0.411   0.000  1.00  0.00     0.027 C 
ENDROOT
BRANCH   7  30
ATOM     30  C   UNL     1      -4.535   2.251   0.000  1.00  0.00     0.163 C 
BRANCH  30  31
ATOM     31  O   UNL     1      -3.728   3.515   0.000  1.00  0.00    -0.396 OA
ATOM     32  H   UNL     1       0.000   0.000   0.000  1.00  0.00     0.210 HD
ENDBRANCH  30  31
ENDBRANCH   7  30
BRANCH  20  33
ATOM     33  O   UNL     1       7.339  -0.874   0.000  1.00  0.00    -0.393 OA
ATOM     34  H   UNL     1       0.000   0.000   0.000  1.00  0.00     0.210 HD
ENDBRANCH  20  33
TORSDOF 3
