REMARK SMILES CCCCCC1CCCC1
REMARK SMILES IDX 3 1 2 2 1 3 4 4 5 5 6 6 7 7 10 8 8 9 9 10
REMARK H PARENT
ROOT
ATOM      1  C   UNL     1      -2.609  -0.403   0.000  1.00  0.00    -0.000 C 
ENDROOT
BRANCH   1   2
ATOM      2  C   UNL     1      -3.760   0.559   0.000  1.00  0.00    -0.003 C 
ATOM      3  C   UNL     1      -5.168   0.043   0.000  1.00  0.00     0.004 C 
ENDBRANCH   1   2
BRANCH   1   4
ATOM      4  C   UNL     1      -1.200   0.114   0.000  1.00  0.00     0.000 C 
BRANCH   4   5
ATOM      5  C   UNL     1      -0.049  -0.848   0.000  1.00  0.00     0.003 C 
BRANCH   5   6
ATOM      6  C   UNL     1       1.359  -0.332   0.000  1.00  0.00    -0.011 C 
ATOM      7  C   UNL     1       2.605  -1.168   0.000  1.00  0.00     0.003 C 
ATOM      8  C   UNL     1       1.770   1.111   0.000  1.00  0.00     0.003 C 
ATOM      9  C   UNL     1       3.785  -0.242   0.000  1.00  0.00     0.000 C 
ATOM     10  C   UNL     1       3.268   1.166   0.000  1.00  0.00     0.000 C 
ENDBRANCH   5   6
ENDBRANCH   4   5
ENDBRANCH   1   4
TORSDOF 4
