REMARK SMILES C[C@@H]1CC[C@]2(C(=O)O)CC[C@]3(C)C(=CCC4[C@@]5(C)C[C@@H](O)[C@@H](O)C(C)(C)C5CC[C@]43C)C2[C@]1(C)O
REMARK SMILES IDX 1 1 2 2 3 3 4 4 5 5 9 6 10 7 11 8 12 9 13 10 14 11 15 12
REMARK SMILES IDX 16 13 17 14 18 15 19 16 20 17 22 18 24 19 25 20 26 21 27 22
REMARK SMILES IDX 28 23 29 24 30 25 31 26 32 27 33 28 34 29 35 30 6 32 7 33
REMARK SMILES IDX 8 34 21 36 23 38
REMARK H PARENT 35 31 8 35 21 37 23 39
ROOT
ATOM      1  C   UNL     1      -5.997  -3.093   0.000  1.00  0.00     0.011 C 
ATOM      2  C   UNL     1      -5.258  -1.788   0.000  1.00  0.00     0.018 C 
ATOM      3  C   UNL     1      -6.019  -0.495   0.000  1.00  0.00     0.007 C 
ATOM      4  C   UNL     1      -5.280   0.810   0.000  1.00  0.00     0.020 C 
ATOM      5  C   UNL     1      -3.780   0.822   0.000  1.00  0.00     0.077 C 
ATOM      6  C   UNL     1      -3.041   2.127   0.000  1.00  0.00     0.020 C 
ATOM      7  C   UNL     1      -1.541   2.140   0.000  1.00  0.00     0.013 C 
ATOM      8  C   UNL     1      -0.780   0.847   0.000  1.00  0.00    -0.006 C 
ATOM      9  C   UNL     1      -0.019  -0.446   0.000  1.00  0.00     0.017 C 
ATOM     10  C   UNL     1      -1.519  -0.458   0.000  1.00  0.00    -0.061 C 
ATOM     11  C   UNL     1      -0.758  -1.751   0.000  1.00  0.00    -0.026 C 
ATOM     12  C   UNL     1       0.742  -1.738   0.000  1.00  0.00     0.032 C 
ATOM     13  C   UNL     1       1.481  -0.433   0.000  1.00  0.00     0.006 C 
ATOM     14  C   UNL     1       2.981  -0.421   0.000  1.00  0.00    -0.023 C 
ATOM     15  C   UNL     1       2.242  -1.726   0.000  1.00  0.00     0.012 C 
ATOM     16  C   UNL     1       3.741  -1.713   0.000  1.00  0.00     0.042 C 
ATOM     17  C   UNL     1       5.242  -1.701   0.000  1.00  0.00     0.144 C 
ATOM     18  C   UNL     1       5.981  -0.396   0.000  1.00  0.00     0.149 C 
ATOM     19  C   UNL     1       5.220   0.897   0.000  1.00  0.00    -0.003 C 
ATOM     20  C   UNL     1       4.947   2.372   0.000  1.00  0.00     0.014 C 
ATOM     21  C   UNL     1       6.625   1.422   0.000  1.00  0.00     0.014 C 
ATOM     22  C   UNL     1       3.720   0.885   0.000  1.00  0.00     0.004 C 
ATOM     23  C   UNL     1       2.959   2.177   0.000  1.00  0.00     0.005 C 
ATOM     24  C   UNL     1       1.459   2.165   0.000  1.00  0.00     0.008 C 
ATOM     25  C   UNL     1       0.720   0.860   0.000  1.00  0.00    -0.020 C 
ATOM     26  C   UNL     1      -0.041   2.152   0.000  1.00  0.00     0.012 C 
ATOM     27  C   UNL     1      -3.019  -0.470   0.000  1.00  0.00     0.064 C 
ATOM     28  C   UNL     1      -3.758  -1.776   0.000  1.00  0.00     0.072 C 
ATOM     29  C   UNL     1      -2.345  -2.277   0.000  1.00  0.00     0.043 C 
ENDROOT
BRANCH  28  30
ATOM     30  O   UNL     1      -4.006  -3.255   0.000  1.00  0.00    -0.389 OA
ATOM     31  H   UNL     1       0.000   0.000   0.000  1.00  0.00     0.211 HD
ENDBRANCH  28  30
BRANCH   5  32
ATOM     32  C   UNL     1      -4.540   2.115   0.000  1.00  0.00     0.310 C 
ATOM     33  O   UNL     1      -6.040   2.103   0.000  1.00  0.00    -0.252 OA
BRANCH  32  34
ATOM     34  O   UNL     1      -3.801   3.420   0.000  1.00  0.00    -0.481 OA
ATOM     35  H   UNL     1       0.000   0.000   0.000  1.00  0.00     0.296 HD
ENDBRANCH  32  34
ENDBRANCH   5  32
BRANCH  17  36
ATOM     36  O   UNL     1       6.002  -2.994   0.000  1.00  0.00    -0.390 OA
ATOM     37  H   UNL     1       0.000   0.000   0.000  1.00  0.00     0.211 HD
ENDBRANCH  17  36
BRANCH  18  38
ATOM     38  O   UNL     1       7.481  -0.383   0.000  1.00  0.00    -0.390 OA
ATOM     39  H   UNL     1       0.000   0.000   0.000  1.00  0.00     0.211 HD
ENDBRANCH  18  38
TORSDOF 5
