REMARK SMILES C[C@@H]1O[C@@H](Oc2cc3c(=O)oc4c(O)c(O)cc5c(=O)oc(c2O)c3c45)[C@H](O)[C@H](O)[C@H]1O
REMARK SMILES IDX 5 1 4 2 2 3 3 4 31 5 29 6 27 7 1 8 32 9 30 11 28 13 6 15
REMARK SMILES IDX 7 16 23 17 8 18 22 19 25 20 9 21 21 22 26 23 11 24 19 25
REMARK SMILES IDX 12 26 18 27 13 28 17 29 15 30 10 31 20 32 24 33 14 35 16 37
REMARK H PARENT 32 10 30 12 28 14 24 34 14 36 16 38
ROOT
ATOM      1  O   UNL     1      -2.635   1.967   0.000  1.00  0.00    -0.458 OA
ENDROOT
BRANCH   1   2
ATOM      2  C   UNL     1      -3.776   0.993   0.000  1.00  0.00     0.339 C 
ATOM      3  C   UNL     1      -6.330   0.519   0.000  1.00  0.00     0.151 C 
ATOM      4  O   UNL     1      -5.190   1.494   0.000  1.00  0.00    -0.335 OA
ATOM      5  C   UNL     1      -6.057  -0.955   0.000  1.00  0.00     0.174 C 
ATOM      6  C   UNL     1      -4.643  -1.456   0.000  1.00  0.00     0.180 C 
ATOM      7  C   UNL     1      -3.502  -0.482   0.000  1.00  0.00     0.214 C 
ATOM      8  C   UNL     1      -7.744   1.020   0.000  1.00  0.00     0.042 C 
BRANCH   5   9
ATOM      9  O   UNL     1      -7.198  -1.929   0.000  1.00  0.00    -0.388 OA
ATOM     10  H   UNL     1       0.000   0.000   0.000  1.00  0.00     0.211 HD
ENDBRANCH   5   9
BRANCH   6  11
ATOM     11  O   UNL     1      -4.370  -2.931   0.000  1.00  0.00    -0.387 OA
ATOM     12  H   UNL     1       0.000   0.000   0.000  1.00  0.00     0.211 HD
ENDBRANCH   6  11
BRANCH   7  13
ATOM     13  O   UNL     1      -2.089  -0.983   0.000  1.00  0.00    -0.384 OA
ATOM     14  H   UNL     1       0.000   0.000   0.000  1.00  0.00     0.211 HD
ENDBRANCH   7  13
ENDBRANCH   1   2
BRANCH   1  15
ATOM     15  C   UNL     1      -1.221   1.466   0.000  1.00  0.00     0.169 A 
ATOM     16  C   UNL     1      -0.948  -0.009   0.000  1.00  0.00     0.067 A 
ATOM     17  C   UNL     1      -0.081   2.440   0.000  1.00  0.00     0.202 A 
ATOM     18  C   UNL     1       0.466  -0.510   0.000  1.00  0.00     0.076 A 
ATOM     19  C   UNL     1       1.333   1.939   0.000  1.00  0.00     0.185 A 
ATOM     20  C   UNL     1       1.607   0.465   0.000  1.00  0.00     0.048 A 
ATOM     21  C   UNL     1       0.739  -1.984   0.000  1.00  0.00     0.344 A 
ATOM     22  O   UNL     1       2.474   2.913   0.000  1.00  0.00    -0.418 OA
ATOM     23  C   UNL     1       3.021  -0.036   0.000  1.00  0.00     0.048 A 
ATOM     24  O   UNL     1       2.153  -2.485   0.000  1.00  0.00    -0.418 OA
ATOM     25  C   UNL     1       3.888   2.413   0.000  1.00  0.00     0.344 A 
ATOM     26  C   UNL     1       3.294  -1.511   0.000  1.00  0.00     0.185 A 
ATOM     27  C   UNL     1       4.161   0.938   0.000  1.00  0.00     0.076 A 
ATOM     28  C   UNL     1       4.708  -2.012   0.000  1.00  0.00     0.202 A 
ATOM     29  C   UNL     1       5.575   0.437   0.000  1.00  0.00     0.066 A 
ATOM     30  C   UNL     1       5.848  -1.038   0.000  1.00  0.00     0.162 A 
ATOM     31  O   UNL     1      -0.401  -2.959   0.000  1.00  0.00    -0.246 OA
ATOM     32  O   UNL     1       5.029   3.387   0.000  1.00  0.00    -0.246 OA
BRANCH  17  33
ATOM     33  O   UNL     1      -0.354   3.915   0.000  1.00  0.00    -0.502 OA
ATOM     34  H   UNL     1       0.000   0.000   0.000  1.00  0.00     0.293 HD
ENDBRANCH  17  33
BRANCH  28  35
ATOM     35  O   UNL     1       4.981  -3.487   0.000  1.00  0.00    -0.502 OA
ATOM     36  H   UNL     1       0.000   0.000   0.000  1.00  0.00     0.293 HD
ENDBRANCH  28  35
BRANCH  30  37
ATOM     37  O   UNL     1       7.262  -1.539   0.000  1.00  0.00    -0.504 OA
ATOM     38  H   UNL     1       0.000   0.000   0.000  1.00  0.00     0.293 HD
ENDBRANCH  30  37
ENDBRANCH   1  15
TORSDOF 8
