REMARK SMILES COC(=O)CCCCCCCCCCCCCc1ccccc1
REMARK SMILES IDX 10 1 9 2 8 3 7 4 6 5 5 6 3 7 4 8 2 9 1 10 11 11 12 12 13 13
REMARK SMILES IDX 14 14 15 15 16 16 17 17 18 18 19 19 23 20 20 21 22 22 21 23
REMARK H PARENT
ROOT
ATOM      1  C   UNL     1      -2.258   0.069   0.000  1.00  0.00     0.000 C 
ENDROOT
BRANCH   1   2
ATOM      2  C   UNL     1      -3.579  -0.641   0.000  1.00  0.00     0.000 C 
BRANCH   2   3
ATOM      3  C   UNL     1      -4.855   0.149   0.000  1.00  0.00     0.000 C 
BRANCH   3   4
ATOM      4  C   UNL     1      -6.176  -0.561   0.000  1.00  0.00     0.001 C 
BRANCH   4   5
ATOM      5  C   UNL     1      -7.452   0.228   0.000  1.00  0.00     0.012 C 
BRANCH   5   6
ATOM      6  C   UNL     1      -8.773  -0.481   0.000  1.00  0.00     0.123 C 
BRANCH   6   7
ATOM      7  C   UNL     1     -10.049   0.308   0.000  1.00  0.00     0.305 C 
ATOM      8  O   UNL     1     -10.003   1.807   0.000  1.00  0.00    -0.252 OA
BRANCH   7   9
ATOM      9  O   UNL     1     -11.370  -0.402   0.000  1.00  0.00    -0.469 OA
ATOM     10  C   UNL     1     -12.646   0.388   0.000  1.00  0.00     0.282 C 
ENDBRANCH   7   9
ENDBRANCH   6   7
ENDBRANCH   5   6
ENDBRANCH   4   5
ENDBRANCH   3   4
ENDBRANCH   2   3
ENDBRANCH   1   2
BRANCH   1  11
ATOM     11  C   UNL     1      -0.983  -0.720   0.000  1.00  0.00     0.000 C 
BRANCH  11  12
ATOM     12  C   UNL     1       0.339  -0.010   0.000  1.00  0.00     0.000 C 
BRANCH  12  13
ATOM     13  C   UNL     1       1.614  -0.800   0.000  1.00  0.00     0.000 C 
BRANCH  13  14
ATOM     14  C   UNL     1       2.936  -0.090   0.000  1.00  0.00     0.000 C 
BRANCH  14  15
ATOM     15  C   UNL     1       4.211  -0.879   0.000  1.00  0.00     0.000 C 
BRANCH  15  16
ATOM     16  C   UNL     1       5.532  -0.170   0.000  1.00  0.00     0.005 C 
BRANCH  16  17
ATOM     17  C   UNL     1       6.808  -0.959   0.000  1.00  0.00     0.035 C 
BRANCH  17  18
ATOM     18  C   UNL     1       8.129  -0.249   0.000  1.00  0.00    -0.048 A 
ATOM     19  C   UNL     1       8.175   1.250   0.000  1.00  0.00     0.004 A 
ATOM     20  C   UNL     1       9.405  -1.039   0.000  1.00  0.00     0.004 A 
ATOM     21  C   UNL     1       9.497   1.960   0.000  1.00  0.00     0.000 A 
ATOM     22  C   UNL     1      10.726  -0.329   0.000  1.00  0.00     0.000 A 
ATOM     23  C   UNL     1      10.772   1.171   0.000  1.00  0.00     0.000 A 
ENDBRANCH  17  18
ENDBRANCH  16  17
ENDBRANCH  15  16
ENDBRANCH  14  15
ENDBRANCH  13  14
ENDBRANCH  12  13
ENDBRANCH  11  12
ENDBRANCH   1  11
TORSDOF 15
