REMARK SMILES CC1(C)OC1C1C[C@@H]([C@@H]2CC[C@]3(C)C4=CCC5C(C)(C)C(=O)CC[C@]5(C)C4CC[C@@]23C)C(O)O1
REMARK SMILES IDX 6 1 7 2 8 3 32 4 34 5 5 6 2 7 4 8 1 9 3 10 9 11 10 12 30 13
REMARK SMILES IDX 11 14 29 15 12 16 28 17 14 18 27 19 15 20 25 21 16 22 24 23
REMARK SMILES IDX 17 24 23 25 18 26 21 27 31 28 13 29 26 30 19 31 20 32 22 33
REMARK SMILES IDX 33 34
REMARK H PARENT 33 35
ROOT
ATOM      1  C   UNL     1       5.590   0.657   0.000  1.00  0.00     0.153 C 
ATOM      2  C   UNL     1       4.630  -0.496   0.000  1.00  0.00     0.044 C 
ATOM      3  C   UNL     1       3.237   0.060   0.000  1.00  0.00     0.052 C 
ATOM      4  C   UNL     1       3.336   1.556   0.000  1.00  0.00     0.250 C 
ATOM      5  O   UNL     1       4.790   1.925   0.000  1.00  0.00    -0.347 OA
ENDROOT
BRANCH   1   6
ATOM      6  C   UNL     1       7.087   0.558   0.000  1.00  0.00     0.179 C 
ATOM      7  C   UNL     1       8.334  -0.275   0.000  1.00  0.00     0.092 C 
ATOM      8  O   UNL     1       8.432   1.222   0.000  1.00  0.00    -0.364 OA
ATOM      9  C   UNL     1       9.790  -0.632   0.000  1.00  0.00     0.045 C 
ATOM     10  C   UNL     1       7.729  -1.648   0.000  1.00  0.00     0.045 C 
ENDBRANCH   1   6
BRANCH   3  11
ATOM     11  C   UNL     1       1.968  -0.741   0.000  1.00  0.00     0.004 C 
ATOM     12  C   UNL     1       1.870  -2.237   0.000  1.00  0.00     0.005 C 
ATOM     13  C   UNL     1       0.575  -0.184   0.000  1.00  0.00    -0.020 C 
ATOM     14  C   UNL     1       0.416  -2.606   0.000  1.00  0.00     0.012 C 
ATOM     15  C   UNL     1       0.057   1.223   0.000  1.00  0.00     0.008 C 
ATOM     16  C   UNL     1      -0.384  -1.337   0.000  1.00  0.00    -0.006 C 
ATOM     17  C   UNL     1      -1.422   1.477   0.000  1.00  0.00     0.009 C 
ATOM     18  C   UNL     1      -1.862  -1.083   0.000  1.00  0.00    -0.064 C 
ATOM     19  C   UNL     1      -2.381   0.324   0.000  1.00  0.00     0.021 C 
ATOM     20  C   UNL     1      -2.822  -2.236   0.000  1.00  0.00    -0.027 C 
ATOM     21  C   UNL     1      -3.860   0.579   0.000  1.00  0.00    -0.022 C 
ATOM     22  C   UNL     1      -4.300  -1.982   0.000  1.00  0.00     0.032 C 
ATOM     23  C   UNL     1      -4.378   1.986   0.000  1.00  0.00     0.015 C 
ATOM     24  C   UNL     1      -4.819  -0.575   0.000  1.00  0.00     0.012 C 
ATOM     25  C   UNL     1      -5.857   2.240   0.000  1.00  0.00     0.077 C 
ATOM     26  C   UNL     1      -6.297  -0.320   0.000  1.00  0.00     0.027 C 
ATOM     27  C   UNL     1      -6.816   1.087   0.000  1.00  0.00     0.138 C 
ATOM     28  C   UNL     1       1.650   0.862   0.000  1.00  0.00     0.012 C 
ATOM     29  C   UNL     1      -1.218  -2.584   0.000  1.00  0.00     0.017 C 
ATOM     30  C   UNL     1      -2.900   1.732   0.000  1.00  0.00     0.012 C 
ATOM     31  C   UNL     1      -7.773  -0.587   0.000  1.00  0.00     0.020 C 
ATOM     32  C   UNL     1      -6.291  -1.820   0.000  1.00  0.00     0.020 C 
ATOM     33  O   UNL     1      -8.294   1.341   0.000  1.00  0.00    -0.299 OA
ENDBRANCH   3  11
BRANCH   4  34
ATOM     34  O   UNL     1       2.183   2.516   0.000  1.00  0.00    -0.368 OA
ATOM     35  H   UNL     1       0.000   0.000   0.000  1.00  0.00     0.213 HD
ENDBRANCH   4  34
TORSDOF 3
