REMARK SMILES CC(C)c1cc2c(c(O)c1O)CC1CCCC(C)(C)[C@@H]1CC2
REMARK SMILES IDX 4 1 5 2 6 3 7 4 8 5 10 6 2 7 1 8 3 9 11 10 22 12 21 13 9 15
REMARK SMILES IDX 12 17 13 18 14 19 20 20 15 21 17 22 16 23 18 24 19 25
REMARK H PARENT 11 11 9 16
REMARK Flexibility Score:   23.900
ROOT
ATOM      1  C   UNL     1      -3.335   0.481   0.000  1.00  0.00     0.001 A 
ATOM      2  C   UNL     1      -2.138   1.385   0.000  1.00  0.00     0.012 A 
ATOM      3  C   UNL     1      -0.757   0.801   0.000  1.00  0.00    -0.041 A 
ATOM      4  C   UNL     1      -0.572  -0.688   0.000  1.00  0.00     0.001 A 
ATOM      5  C   UNL     1      -1.768  -1.592   0.000  1.00  0.00     0.161 A 
ATOM      6  C   UNL     1      -3.150  -1.008   0.000  1.00  0.00     0.161 A 
ENDROOT
BRANCH   1   7
ATOM      7  C   UNL     1      -4.716   1.065   0.000  1.00  0.00     0.017 C 
ATOM      8  C   UNL     1      -4.901   2.554   0.000  1.00  0.00     0.012 C 
ATOM      9  C   UNL     1      -5.913   0.161   0.000  1.00  0.00     0.012 C 
ENDBRANCH   1   7
BRANCH   6  10
ATOM     10  O   UNL     1      -4.347  -1.912   0.000  1.00  0.00    -0.504 OA
ATOM     11  H   UNL     1       0.000   0.000   0.000  1.00  0.00     0.293 HD
ENDBRANCH   6  10
BRANCH   3  12
ATOM     12  C   UNL     1       0.292   1.874   0.000  1.00  0.00     0.036 C 
BRANCH  12  13
ATOM     13  C   UNL     1       1.784   1.723   0.000  1.00  0.00     0.009 CG0
ATOM     14  G   UNL     1       2.597   0.462   0.000  1.00  0.00     0.000 G0
ENDBRANCH  12  13
ENDBRANCH   3  12
BRANCH   5  15
ATOM     15  O   UNL     1      -1.584  -3.080   0.000  1.00  0.00    -0.504 OA
ATOM     16  H   UNL     1       0.000   0.000   0.000  1.00  0.00     0.293 HD
ENDBRANCH   5  15
BRANCH   4  17
ATOM     17  C   UNL     1       0.707  -1.471   0.000  1.00  0.00     0.043 C 
BRANCH  17  18
ATOM     18  C   UNL     1       2.117  -0.960   0.000  1.00  0.00    -0.003 C 
ATOM     19  C   UNL     1       3.109  -2.086   0.000  1.00  0.00     0.004 C 
ATOM     20  C   UNL     1       2.597   0.462   0.000  1.00  0.00    -0.002 CG0
ATOM     21  C   UNL     1       4.579  -1.790   0.000  1.00  0.00     0.001 C 
ATOM     22  C   UNL     1       4.067   0.757   0.000  1.00  0.00    -0.032 C 
ATOM     23  C   UNL     1       5.059  -0.369   0.000  1.00  0.00     0.007 C 
ATOM     24  C   UNL     1       3.521   2.154   0.000  1.00  0.00     0.011 C 
ATOM     25  C   UNL     1       5.348   1.538   0.000  1.00  0.00     0.011 C 
ATOM     26  G   UNL     1       1.784   1.723   0.000  1.00  0.00     0.000 G0
ENDBRANCH  17  18
ENDBRANCH   4  17
TORSDOF 3
