REMARK SMILES Cc1cc(O)c2c(c1)C(=O)[C@@H]1CC[C@@H](O)[C@H](O)[C@H]1[C@@H]2O
REMARK SMILES IDX 1 1 2 2 3 3 4 4 6 5 7 6 8 7 9 8 10 9 11 10 12 11 13 12 14 13
REMARK SMILES IDX 16 14 18 15 19 16 5 17 20 19 17 21 15 23
REMARK H PARENT 5 18 20 20 17 22 15 24
ROOT
ATOM      1  C   UNL     1      -5.401  -1.036   0.000  1.00  0.00     0.044 C 
ATOM      2  C   UNL     1      -4.007  -0.480   0.000  1.00  0.00    -0.047 A 
ATOM      3  C   UNL     1      -3.792   1.004   0.000  1.00  0.00     0.050 A 
ATOM      4  C   UNL     1      -2.399   1.560   0.000  1.00  0.00     0.122 A 
ATOM      5  C   UNL     1      -1.221   0.632   0.000  1.00  0.00     0.033 A 
ATOM      6  C   UNL     1      -1.436  -0.853   0.000  1.00  0.00     0.028 A 
ATOM      7  C   UNL     1      -2.829  -1.409   0.000  1.00  0.00     0.016 A 
ATOM      8  C   UNL     1      -0.258  -1.781   0.000  1.00  0.00     0.166 C 
ATOM      9  O   UNL     1      -0.473  -3.266   0.000  1.00  0.00    -0.294 OA
ATOM     10  C   UNL     1       1.135  -1.226   0.000  1.00  0.00     0.070 C 
ATOM     11  C   UNL     1       2.313  -2.154   0.000  1.00  0.00     0.015 C 
ATOM     12  C   UNL     1       3.706  -1.598   0.000  1.00  0.00     0.035 C 
ATOM     13  C   UNL     1       3.921  -0.114   0.000  1.00  0.00     0.143 C 
ATOM     14  C   UNL     1       2.743   0.815   0.000  1.00  0.00     0.149 C 
ATOM     15  C   UNL     1       1.350   0.259   0.000  1.00  0.00     0.065 C 
ATOM     16  C   UNL     1       0.172   1.188   0.000  1.00  0.00     0.155 C 
ENDROOT
BRANCH   4  17
ATOM     17  O   UNL     1      -2.184   3.045   0.000  1.00  0.00    -0.508 OA
ATOM     18  H   UNL     1       0.000   0.000   0.000  1.00  0.00     0.293 HD
ENDBRANCH   4  17
BRANCH  16  19
ATOM     19  O   UNL     1       0.387   2.672   0.000  1.00  0.00    -0.388 OA
ATOM     20  H   UNL     1       0.000   0.000   0.000  1.00  0.00     0.211 HD
ENDBRANCH  16  19
BRANCH  14  21
ATOM     21  O   UNL     1       2.958   2.299   0.000  1.00  0.00    -0.390 OA
ATOM     22  H   UNL     1       0.000   0.000   0.000  1.00  0.00     0.211 HD
ENDBRANCH  14  21
BRANCH  13  23
ATOM     23  O   UNL     1       5.314   0.442   0.000  1.00  0.00    -0.390 OA
ATOM     24  H   UNL     1       0.000   0.000   0.000  1.00  0.00     0.211 HD
ENDBRANCH  13  23
TORSDOF 4
