REMARK SMILES COc1c(C)c(OC(C)=O)cc2c1C(=O)[C@@H](OC(C)=O)[C@H](c1ccc(OC(C)=O)cc1)O2
REMARK SMILES IDX 3 1 4 2 5 3 6 4 11 5 12 6 13 7 14 8 15 9 16 10 21 11 32 12
REMARK SMILES IDX 2 13 1 14 7 15 8 16 9 17 10 18 17 19 18 20 19 21 20 22 22 23
REMARK SMILES IDX 23 24 31 25 24 26 30 27 25 28 26 29 27 30 28 31 29 32
REMARK H PARENT
ROOT
ATOM      1  C   UNL     1      -3.513  -1.316   0.000  1.00  0.00     0.140 A 
ATOM      2  C   UNL     1      -4.650  -0.337   0.000  1.00  0.00     0.035 A 
ATOM      3  C   UNL     1      -6.065  -0.833   0.000  1.00  0.00     0.052 C 
ATOM      4  C   UNL     1      -4.371   1.137   0.000  1.00  0.00     0.141 A 
ATOM      5  C   UNL     1      -2.955   1.632   0.000  1.00  0.00     0.095 A 
ATOM      6  C   UNL     1      -1.818   0.654   0.000  1.00  0.00     0.138 A 
ATOM      7  C   UNL     1      -2.097  -0.820   0.000  1.00  0.00     0.106 A 
ATOM      8  C   UNL     1      -0.960  -1.798   0.000  1.00  0.00     0.215 C 
ATOM      9  O   UNL     1      -1.238  -3.272   0.000  1.00  0.00    -0.289 OA
ATOM     10  C   UNL     1       0.456  -1.303   0.000  1.00  0.00     0.293 C 
ATOM     11  C   UNL     1       0.735   0.171   0.000  1.00  0.00     0.252 C 
ATOM     12  O   UNL     1      -0.402   1.149   0.000  1.00  0.00    -0.480 OA
ENDROOT
BRANCH   1  13
ATOM     13  O   UNL     1      -3.791  -2.790   0.000  1.00  0.00    -0.495 OA
ATOM     14  C   UNL     1      -5.207  -3.285   0.000  1.00  0.00     0.278 C 
ENDBRANCH   1  13
BRANCH   4  15
ATOM     15  O   UNL     1      -5.508   2.115   0.000  1.00  0.00    -0.426 OA
BRANCH  15  16
ATOM     16  C   UNL     1      -5.229   3.589   0.000  1.00  0.00     0.308 C 
ATOM     17  C   UNL     1      -6.367   4.567   0.000  1.00  0.00     0.139 C 
ATOM     18  O   UNL     1      -3.814   4.084   0.000  1.00  0.00    -0.252 OA
ENDBRANCH  15  16
ENDBRANCH   4  15
BRANCH  10  19
ATOM     19  O   UNL     1       1.593  -2.281   0.000  1.00  0.00    -0.450 OA
BRANCH  19  20
ATOM     20  C   UNL     1       1.315  -3.755   0.000  1.00  0.00     0.303 C 
ATOM     21  C   UNL     1       2.452  -4.733   0.000  1.00  0.00     0.139 C 
ATOM     22  O   UNL     1      -0.101  -4.250   0.000  1.00  0.00    -0.253 OA
ENDBRANCH  19  20
ENDBRANCH  10  19
BRANCH  11  23
ATOM     23  C   UNL     1       2.151   0.667   0.000  1.00  0.00    -0.003 A 
ATOM     24  C   UNL     1       3.288  -0.311   0.000  1.00  0.00     0.011 A 
ATOM     25  C   UNL     1       2.429   2.141   0.000  1.00  0.00     0.011 A 
ATOM     26  C   UNL     1       4.703   0.184   0.000  1.00  0.00     0.047 A 
ATOM     27  C   UNL     1       3.845   2.636   0.000  1.00  0.00     0.047 A 
ATOM     28  C   UNL     1       4.982   1.658   0.000  1.00  0.00     0.130 A 
BRANCH  28  29
ATOM     29  O   UNL     1       6.398   2.154   0.000  1.00  0.00    -0.427 OA
BRANCH  29  30
ATOM     30  C   UNL     1       7.535   1.175   0.000  1.00  0.00     0.308 C 
ATOM     31  C   UNL     1       8.951   1.671   0.000  1.00  0.00     0.139 C 
ATOM     32  O   UNL     1       7.256  -0.298   0.000  1.00  0.00    -0.252 OA
ENDBRANCH  29  30
ENDBRANCH  28  29
ENDBRANCH  11  23
TORSDOF 8
