REMARK SMILES COC(=O)/C(C)=C\CC[C@H](C)[C@@H]1CC[C@]2(C)C3=CC[C@H]4C(C)(C)C(=NO)CC[C@]4(C)[C@H]3CC[C@@]12C
REMARK SMILES IDX 8 1 7 2 5 3 6 4 3 5 4 6 2 7 1 8 9 9 10 10 11 11 12 12 13 13
REMARK SMILES IDX 34 14 14 15 33 16 15 17 32 18 17 19 31 20 18 21 29 22 19 23
REMARK SMILES IDX 28 24 20 25 27 26 21 27 24 28 35 29 16 30 30 31 22 32 23 33
REMARK SMILES IDX 25 34 26 35
REMARK H PARENT 26 36
ROOT
ATOM      1  C   UNL     1       4.979  -0.301   0.000  1.00  0.00     0.028 C 
ENDROOT
BRANCH   1   2
ATOM      2  C   UNL     1       5.282  -1.770   0.000  1.00  0.00    -0.016 C 
BRANCH   2   3
ATOM      3  C   UNL     1       6.705  -2.243   0.000  1.00  0.00     0.030 C 
ATOM      4  C   UNL     1       7.008  -3.712   0.000  1.00  0.00     0.052 C 
BRANCH   3   5
ATOM      5  C   UNL     1       7.827  -1.246   0.000  1.00  0.00     0.333 C 
ATOM      6  O   UNL     1       7.524   0.223   0.000  1.00  0.00    -0.247 OA
BRANCH   5   7
ATOM      7  O   UNL     1       9.250  -1.719   0.000  1.00  0.00    -0.466 OA
ATOM      8  C   UNL     1      10.371  -0.722   0.000  1.00  0.00     0.282 C 
ENDBRANCH   5   7
ENDBRANCH   3   5
ENDBRANCH   2   3
ENDBRANCH   1   2
BRANCH   1   9
ATOM      9  C   UNL     1       3.556   0.172   0.000  1.00  0.00     0.008 C 
BRANCH   9  10
ATOM     10  C   UNL     1       3.253   1.641   0.000  1.00  0.00    -0.010 C 
ATOM     11  C   UNL     1       4.375   2.638   0.000  1.00  0.00     0.008 C 
BRANCH  10  12
ATOM     12  C   UNL     1       1.830   2.114   0.000  1.00  0.00    -0.001 C 
ATOM     13  C   UNL     1       1.375   3.543   0.000  1.00  0.00     0.005 C 
ATOM     14  C   UNL     1       0.611   1.240   0.000  1.00  0.00    -0.020 C 
ATOM     15  C   UNL     1      -0.125   3.553   0.000  1.00  0.00     0.012 C 
ATOM     16  C   UNL     1       0.444  -0.251   0.000  1.00  0.00     0.008 C 
ATOM     17  C   UNL     1      -0.597   2.129   0.000  1.00  0.00    -0.006 C 
ATOM     18  C   UNL     1      -0.930  -0.852   0.000  1.00  0.00     0.009 C 
ATOM     19  C   UNL     1      -1.971   1.528   0.000  1.00  0.00    -0.064 C 
ATOM     20  C   UNL     1      -2.138   0.037   0.000  1.00  0.00     0.021 C 
ATOM     21  C   UNL     1      -3.179   2.417   0.000  1.00  0.00    -0.027 C 
ATOM     22  C   UNL     1      -3.512  -0.564   0.000  1.00  0.00    -0.022 C 
ATOM     23  C   UNL     1      -4.553   1.816   0.000  1.00  0.00     0.032 C 
ATOM     24  C   UNL     1      -3.678  -2.055   0.000  1.00  0.00     0.014 C 
ATOM     25  C   UNL     1      -4.720   0.326   0.000  1.00  0.00     0.011 C 
ATOM     26  C   UNL     1      -5.053  -2.656   0.000  1.00  0.00     0.056 C 
ATOM     27  C   UNL     1      -6.094  -0.276   0.000  1.00  0.00     0.010 C 
ATOM     28  C   UNL     1      -6.260  -1.767   0.000  1.00  0.00     0.063 C 
ATOM     29  C   UNL     1       1.905   0.482   0.000  1.00  0.00     0.012 C 
ATOM     30  C   UNL     1      -1.706   3.140   0.000  1.00  0.00     0.017 C 
ATOM     31  C   UNL     1      -2.304  -1.453   0.000  1.00  0.00     0.012 C 
ATOM     32  C   UNL     1      -7.591  -0.371   0.000  1.00  0.00     0.018 C 
ATOM     33  C   UNL     1      -6.448   1.182   0.000  1.00  0.00     0.018 C 
BRANCH  28  34
ATOM     34  N   UNL     1      -7.635  -2.368   0.000  1.00  0.00    -0.098 NA
BRANCH  34  35
ATOM     35  O   UNL     1      -7.801  -3.859   0.000  1.00  0.00    -0.411 OA
ATOM     36  H   UNL     1       0.000   0.000   0.000  1.00  0.00     0.330 HD
ENDBRANCH  34  35
ENDBRANCH  28  34
ENDBRANCH  10  12
ENDBRANCH   9  10
ENDBRANCH   1   9
TORSDOF 9
