REMARK SMILES CC(C)C1=CC2=C(C(=O)C1=O)[C@@]13CCCC(C)(C)C1C[C@@H]2OC3
REMARK SMILES IDX 4 1 5 2 6 3 7 4 8 5 9 6 10 7 11 8 12 9 13 10 14 11 15 12
REMARK SMILES IDX 16 13 17 14 18 15 19 16 20 17 21 18 22 19 23 20 2 21 1 22
REMARK SMILES IDX 3 23
REMARK H PARENT
ROOT
ATOM      1  C   UNL     1      -3.120   0.306   0.000  1.00  0.00     0.007 C 
ATOM      2  C   UNL     1      -2.129   1.432   0.000  1.00  0.00     0.015 C 
ATOM      3  C   UNL     1      -0.658   1.136   0.000  1.00  0.00    -0.011 C 
ATOM      4  C   UNL     1      -0.179  -0.285   0.000  1.00  0.00     0.018 C 
ATOM      5  C   UNL     1      -1.170  -1.411   0.000  1.00  0.00     0.230 C 
ATOM      6  O   UNL     1      -0.690  -2.832   0.000  1.00  0.00    -0.285 OA
ATOM      7  C   UNL     1      -2.640  -1.115   0.000  1.00  0.00     0.229 C 
ATOM      8  O   UNL     1      -3.632  -2.241   0.000  1.00  0.00    -0.285 OA
ATOM      9  C   UNL     1       1.292  -0.581   0.000  1.00  0.00     0.027 C 
ATOM     10  C   UNL     1       1.771  -2.002   0.000  1.00  0.00     0.015 C 
ATOM     11  C   UNL     1       3.242  -2.297   0.000  1.00  0.00     0.002 C 
ATOM     12  C   UNL     1       4.233  -1.171   0.000  1.00  0.00     0.007 C 
ATOM     13  C   UNL     1       3.754   0.250   0.000  1.00  0.00    -0.032 C 
ATOM     14  C   UNL     1       3.789   1.750   0.000  1.00  0.00     0.011 C 
ATOM     15  C   UNL     1       5.237   0.475   0.000  1.00  0.00     0.011 C 
ATOM     16  C   UNL     1       2.283   0.545   0.000  1.00  0.00     0.011 C 
ATOM     17  C   UNL     1       1.804   1.967   0.000  1.00  0.00     0.042 C 
ATOM     18  C   UNL     1       0.333   2.262   0.000  1.00  0.00     0.149 C 
ATOM     19  O   UNL     1       0.644   1.500   0.000  1.00  0.00    -0.373 OA
ATOM     20  C   UNL     1       1.077   0.214   0.000  1.00  0.00     0.173 C 
ENDROOT
BRANCH   1  21
ATOM     21  C   UNL     1      -4.590   0.601   0.000  1.00  0.00     0.017 C 
ATOM     22  C   UNL     1      -5.070   2.023   0.000  1.00  0.00     0.012 C 
ATOM     23  C   UNL     1      -5.582  -0.524   0.000  1.00  0.00     0.012 C 
ENDBRANCH   1  21
TORSDOF 1
