REMARK SMILES C=C/C(C)=C\C[C@]1(C)[C@H](C)[C@@H](O)[C@H](OC(C)=O)[C@@]23C(=C[C@H](O)C[C@@H]12)[C@@H](OC(=O)CCC)O[C@H]3OC(=O)CCC
REMARK SMILES IDX 7 1 8 2 9 3 10 4 11 5 13 6 18 7 19 8 20 9 21 10 23 11 24 12
REMARK SMILES IDX 25 13 32 14 33 15 6 16 5 17 3 18 4 19 2 20 1 21 12 22 14 24
REMARK SMILES IDX 15 25 16 26 17 27 22 28 34 30 35 31 36 32 37 33 38 34 39 35
REMARK SMILES IDX 26 36 27 37 28 38 29 39 30 40 31 41
REMARK H PARENT 12 23 22 29
ROOT
ATOM      1  C   UNL     1       2.504  -0.909   0.000  1.00  0.00    -0.020 C 
ATOM      2  C   UNL     1       3.256  -2.207   0.000  1.00  0.00     0.012 C 
ATOM      3  C   UNL     1       2.242   0.568   0.000  1.00  0.00     0.025 C 
ATOM      4  C   UNL     1       3.390   1.533   0.000  1.00  0.00     0.011 C 
ATOM      5  C   UNL     1       0.832   1.079   0.000  1.00  0.00     0.160 C 
ATOM      6  C   UNL     1      -0.316   0.113   0.000  1.00  0.00     0.222 C 
ATOM      7  C   UNL     1      -0.054  -1.364   0.000  1.00  0.00     0.103 C 
ATOM      8  C   UNL     1      -1.202  -2.329   0.000  1.00  0.00     0.013 C 
ATOM      9  C   UNL     1      -0.939  -3.806   0.000  1.00  0.00     0.011 C 
ATOM     10  C   UNL     1       0.471  -4.317   0.000  1.00  0.00     0.137 C 
ATOM     11  C   UNL     1       1.619  -3.352   0.000  1.00  0.00     0.041 C 
ATOM     12  C   UNL     1       1.357  -1.875   0.000  1.00  0.00     0.019 C 
ATOM     13  C   UNL     1      -2.475  -1.536   0.000  1.00  0.00     0.343 C 
ATOM     14  O   UNL     1      -2.114  -0.080   0.000  1.00  0.00    -0.298 OA
ATOM     15  C   UNL     1      -0.617   0.026   0.000  1.00  0.00     0.329 C 
ENDROOT
BRANCH   1  16
ATOM     16  C   UNL     1       3.913  -0.394   0.000  1.00  0.00     0.035 C 
BRANCH  16  17
ATOM     17  C   UNL     1       5.064  -1.357   0.000  1.00  0.00    -0.023 C 
BRANCH  17  18
ATOM     18  C   UNL     1       6.472  -0.842   0.000  1.00  0.00    -0.056 C 
ATOM     19  C   UNL     1       7.623  -1.805   0.000  1.00  0.00     0.044 C 
BRANCH  18  20
ATOM     20  C   UNL     1       6.731   0.635   0.000  1.00  0.00    -0.005 C 
ATOM     21  C   UNL     1       8.140   1.150   0.000  1.00  0.00     0.009 C 
ENDBRANCH  18  20
ENDBRANCH  17  18
ENDBRANCH  16  17
ENDBRANCH   1  16
BRANCH   5  22
ATOM     22  O   UNL     1       0.570   2.556   0.000  1.00  0.00    -0.389 OA
ATOM     23  H   UNL     1       0.000   0.000   0.000  1.00  0.00     0.211 HD
ENDBRANCH   5  22
BRANCH   6  24
ATOM     24  O   UNL     1      -1.726   0.625   0.000  1.00  0.00    -0.459 OA
BRANCH  24  25
ATOM     25  C   UNL     1      -1.988   2.101   0.000  1.00  0.00     0.303 C 
ATOM     26  C   UNL     1      -3.399   2.613   0.000  1.00  0.00     0.139 C 
ATOM     27  O   UNL     1      -1.109   3.316   0.000  1.00  0.00    -0.253 OA
ENDBRANCH  24  25
ENDBRANCH   6  24
BRANCH  10  28
ATOM     28  O   UNL     1       0.733  -5.794   0.000  1.00  0.00    -0.389 OA
ATOM     29  H   UNL     1       0.000   0.000   0.000  1.00  0.00     0.211 HD
ENDBRANCH  10  28
BRANCH  15  30
ATOM     30  O   UNL     1       0.176   1.300   0.000  1.00  0.00    -0.434 OA
BRANCH  30  31
ATOM     31  C   UNL     1      -0.530   2.623   0.000  1.00  0.00     0.308 C 
ATOM     32  O   UNL     1      -1.972   3.035   0.000  1.00  0.00    -0.252 OA
BRANCH  31  33
ATOM     33  C   UNL     1       0.263   3.896   0.000  1.00  0.00     0.122 C 
BRANCH  33  34
ATOM     34  C   UNL     1      -0.443   5.220   0.000  1.00  0.00     0.008 C 
ATOM     35  C   UNL     1       0.351   6.493   0.000  1.00  0.00     0.004 C 
ENDBRANCH  33  34
ENDBRANCH  31  33
ENDBRANCH  30  31
ENDBRANCH  15  30
BRANCH  13  36
ATOM     36  O   UNL     1      -3.865  -2.100   0.000  1.00  0.00    -0.431 OA
BRANCH  36  37
ATOM     37  C   UNL     1      -5.048  -1.178   0.000  1.00  0.00     0.308 C 
ATOM     38  O   UNL     1      -4.841   0.308   0.000  1.00  0.00    -0.252 OA
BRANCH  37  39
ATOM     39  C   UNL     1      -6.438  -1.741   0.000  1.00  0.00     0.122 C 
BRANCH  39  40
ATOM     40  C   UNL     1      -7.621  -0.819   0.000  1.00  0.00     0.008 C 
ATOM     41  C   UNL     1      -9.011  -1.383   0.000  1.00  0.00     0.004 C 
ENDBRANCH  39  40
ENDBRANCH  37  39
ENDBRANCH  36  37
ENDBRANCH  13  36
TORSDOF 16
