REMARK SMILES O=C(O)CCCCCCCCCCCCCCCCCCc1ccc2c(c1)OCO2
REMARK SMILES IDX 11 1 10 2 9 3 8 4 7 5 6 6 5 7 4 8 2 9 1 10 3 11 12 13 13 14
REMARK SMILES IDX 14 15 15 16 16 17 17 18 18 19 19 20 20 21 21 22 22 23 23 24
REMARK SMILES IDX 27 25 24 26 26 27 25 28 28 29 30 30 29 31
REMARK H PARENT 3 12
ROOT
ATOM      1  C   UNL     1       5.090   0.408   0.000  1.00  0.00     0.000 C 
ENDROOT
BRANCH   1   2
ATOM      2  C   UNL     1       6.352  -0.403   0.000  1.00  0.00     0.000 C 
BRANCH   2   3
ATOM      3  C   UNL     1       7.685   0.284   0.000  1.00  0.00     0.000 C 
BRANCH   3   4
ATOM      4  C   UNL     1       8.947  -0.527   0.000  1.00  0.00     0.000 C 
BRANCH   4   5
ATOM      5  C   UNL     1      10.281   0.161   0.000  1.00  0.00     0.000 C 
BRANCH   5   6
ATOM      6  C   UNL     1      11.542  -0.650   0.000  1.00  0.00     0.001 C 
BRANCH   6   7
ATOM      7  C   UNL     1      12.876   0.037   0.000  1.00  0.00     0.012 C 
BRANCH   7   8
ATOM      8  C   UNL     1      14.137  -0.774   0.000  1.00  0.00     0.122 C 
BRANCH   8   9
ATOM      9  C   UNL     1      15.471  -0.087   0.000  1.00  0.00     0.303 C 
ATOM     10  O   UNL     1      15.542   1.411   0.000  1.00  0.00    -0.252 OA
BRANCH   9  11
ATOM     11  O   UNL     1      16.733  -0.898   0.000  1.00  0.00    -0.481 OA
ATOM     12  H   UNL     1       0.000   0.000   0.000  1.00  0.00     0.296 HD
ENDBRANCH   9  11
ENDBRANCH   8   9
ENDBRANCH   7   8
ENDBRANCH   6   7
ENDBRANCH   5   6
ENDBRANCH   4   5
ENDBRANCH   3   4
ENDBRANCH   2   3
ENDBRANCH   1   2
BRANCH   1  13
ATOM     13  C   UNL     1       3.757  -0.279   0.000  1.00  0.00     0.000 C 
BRANCH  13  14
ATOM     14  C   UNL     1       2.495   0.532   0.000  1.00  0.00     0.000 C 
BRANCH  14  15
ATOM     15  C   UNL     1       1.162  -0.155   0.000  1.00  0.00     0.000 C 
BRANCH  15  16
ATOM     16  C   UNL     1      -0.100   0.655   0.000  1.00  0.00     0.000 C 
BRANCH  16  17
ATOM     17  C   UNL     1      -1.433  -0.032   0.000  1.00  0.00     0.000 C 
BRANCH  17  18
ATOM     18  C   UNL     1      -2.695   0.779   0.000  1.00  0.00     0.000 C 
BRANCH  18  19
ATOM     19  C   UNL     1      -4.028   0.092   0.000  1.00  0.00     0.000 C 
BRANCH  19  20
ATOM     20  C   UNL     1      -5.290   0.903   0.000  1.00  0.00     0.000 C 
BRANCH  20  21
ATOM     21  C   UNL     1      -6.623   0.216   0.000  1.00  0.00     0.005 C 
BRANCH  21  22
ATOM     22  C   UNL     1      -7.885   1.027   0.000  1.00  0.00     0.035 C 
BRANCH  22  23
ATOM     23  C   UNL     1      -9.219   0.339   0.000  1.00  0.00    -0.044 A 
ATOM     24  C   UNL     1      -9.290  -1.159   0.000  1.00  0.00     0.008 A 
ATOM     25  C   UNL     1     -10.480   1.150   0.000  1.00  0.00     0.054 A 
ATOM     26  C   UNL     1     -10.623  -1.846   0.000  1.00  0.00     0.051 A 
ATOM     27  C   UNL     1     -11.814   0.463   0.000  1.00  0.00     0.166 A 
ATOM     28  C   UNL     1     -11.885  -1.035   0.000  1.00  0.00     0.165 A 
ATOM     29  O   UNL     1     -13.217   0.994   0.000  1.00  0.00    -0.454 OA
ATOM     30  O   UNL     1     -13.332  -1.430   0.000  1.00  0.00    -0.454 OA
ATOM     31  C   UNL     1     -14.155  -0.176   0.000  1.00  0.00     0.468 C 
ENDBRANCH  22  23
ENDBRANCH  21  22
ENDBRANCH  20  21
ENDBRANCH  19  20
ENDBRANCH  18  19
ENDBRANCH  17  18
ENDBRANCH  16  17
ENDBRANCH  15  16
ENDBRANCH  14  15
ENDBRANCH  13  14
ENDBRANCH   1  13
TORSDOF 20
