REMARK SMILES C=CC(C)(C)c1cc([C@@H]2COc3cc(O)ccc3C2)c(OC)c(O)c1O
REMARK SMILES IDX 6 1 7 2 8 3 20 4 23 5 25 6 3 7 4 8 5 9 2 10 1 11 26 12 9 14
REMARK SMILES IDX 10 15 19 16 11 17 18 18 12 19 17 20 13 21 16 22 14 23 15 24
REMARK SMILES IDX 24 26 21 28 22 29
REMARK H PARENT 26 13 15 25 24 27
ROOT
ATOM      1  C   UNL     1      -2.816   0.680   0.000  1.00  0.00     0.008 A 
ATOM      2  C   UNL     1      -1.316   0.717   0.000  1.00  0.00     0.016 A 
ATOM      3  C   UNL     1      -0.534  -0.563   0.000  1.00  0.00     0.005 A 
ATOM      4  C   UNL     1      -1.252  -1.880   0.000  1.00  0.00     0.168 A 
ATOM      5  C   UNL     1      -2.752  -1.917   0.000  1.00  0.00     0.201 A 
ATOM      6  C   UNL     1      -3.534  -0.637   0.000  1.00  0.00     0.165 A 
ENDROOT
BRANCH   1   7
ATOM      7  C   UNL     1      -3.598   1.960   0.000  1.00  0.00     0.011 C 
ATOM      8  C   UNL     1      -2.317   2.742   0.000  1.00  0.00     0.021 C 
ATOM      9  C   UNL     1      -4.878   1.179   0.000  1.00  0.00     0.021 C 
BRANCH   7  10
ATOM     10  C   UNL     1      -4.379   3.240   0.000  1.00  0.00    -0.024 C 
ATOM     11  C   UNL     1      -5.879   3.204   0.000  1.00  0.00     0.005 C 
ENDBRANCH   7  10
ENDBRANCH   1   7
BRANCH   6  12
ATOM     12  O   UNL     1      -5.033  -0.674   0.000  1.00  0.00    -0.504 OA
ATOM     13  H   UNL     1       0.000   0.000   0.000  1.00  0.00     0.293 HD
ENDBRANCH   6  12
BRANCH   3  14
ATOM     14  C   UNL     1       0.965  -0.526   0.000  1.00  0.00     0.065 C 
ATOM     15  C   UNL     1       1.747  -1.806   0.000  1.00  0.00     0.238 C 
ATOM     16  C   UNL     1       1.683   0.791   0.000  1.00  0.00     0.051 C 
ATOM     17  O   UNL     1       3.247  -1.769   0.000  1.00  0.00    -0.493 OA
ATOM     18  C   UNL     1       3.183   0.828   0.000  1.00  0.00    -0.005 A 
ATOM     19  C   UNL     1       3.964  -0.452   0.000  1.00  0.00     0.126 A 
ATOM     20  C   UNL     1       3.900   2.145   0.000  1.00  0.00     0.011 A 
ATOM     21  C   UNL     1       5.464  -0.415   0.000  1.00  0.00     0.092 A 
ATOM     22  C   UNL     1       5.400   2.182   0.000  1.00  0.00     0.047 A 
ATOM     23  C   UNL     1       6.182   0.902   0.000  1.00  0.00     0.119 A 
BRANCH  23  24
ATOM     24  O   UNL     1       7.681   0.939   0.000  1.00  0.00    -0.508 OA
ATOM     25  H   UNL     1       0.000   0.000   0.000  1.00  0.00     0.293 HD
ENDBRANCH  23  24
ENDBRANCH   3  14
BRANCH   5  26
ATOM     26  O   UNL     1      -3.469  -3.234   0.000  1.00  0.00    -0.502 OA
ATOM     27  H   UNL     1       0.000   0.000   0.000  1.00  0.00     0.293 HD
ENDBRANCH   5  26
BRANCH   4  28
ATOM     28  O   UNL     1      -0.470  -3.160   0.000  1.00  0.00    -0.492 OA
ATOM     29  C   UNL     1      -1.188  -4.477   0.000  1.00  0.00     0.278 C 
ENDBRANCH   4  28
TORSDOF 7
