REMARK SMILES CCC(C)C(=O)O[C@@H]1[C@@H]2C(=O)[C@](C)([C@H]3CC[C@]4(C)[C@@H](CC(=O)O[C@H]4c4ccoc4)[C@]34O[C@H]24)[C@@H](CC(=O)OC)C1(C)C
REMARK SMILES IDX 8 1 9 2 10 3 11 4 12 5 13 6 14 7 15 8 16 9 17 10 18 11 19 12
REMARK SMILES IDX 20 13 21 14 22 15 23 16 24 17 30 18 31 19 32 20 33 21 39 22
REMARK SMILES IDX 40 23 41 24 7 25 5 26 6 27 3 28 4 29 2 30 1 31 34 32 35 33
REMARK SMILES IDX 36 34 37 35 38 36 25 37 29 38 26 39 28 40 27 41
REMARK H PARENT
ROOT
ATOM      1  C   UNL     1      -3.297   0.119   0.000  1.00  0.00     0.195 C 
ATOM      2  C   UNL     1      -2.018  -0.664   0.000  1.00  0.00     0.130 C 
ATOM      3  C   UNL     1      -1.980   0.836   0.000  1.00  0.00     0.148 C 
ATOM      4  O   UNL     1      -2.740   1.075   0.000  1.00  0.00    -0.298 OA
ATOM      5  C   UNL     1      -0.662   1.552   0.000  1.00  0.00     0.036 C 
ATOM      6  C   UNL     1      -0.624   3.052   0.000  1.00  0.00     0.020 C 
ATOM      7  C   UNL     1       0.618   0.770   0.000  1.00  0.00     0.038 C 
ATOM      8  C   UNL     1       1.935   1.487   0.000  1.00  0.00     0.008 C 
ATOM      9  C   UNL     1       3.215   0.704   0.000  1.00  0.00     0.012 C 
ATOM     10  C   UNL     1       3.177  -0.796   0.000  1.00  0.00     0.015 C 
ATOM     11  C   UNL     1       4.494  -0.079   0.000  1.00  0.00     0.016 C 
ATOM     12  C   UNL     1       1.859  -1.512   0.000  1.00  0.00     0.045 C 
ATOM     13  C   UNL     1       1.821  -3.012   0.000  1.00  0.00     0.130 C 
ATOM     14  C   UNL     1       3.101  -3.795   0.000  1.00  0.00     0.306 C 
ATOM     15  O   UNL     1       3.063  -5.294   0.000  1.00  0.00    -0.252 OA
ATOM     16  O   UNL     1       4.418  -3.078   0.000  1.00  0.00    -0.457 OA
ATOM     17  C   UNL     1       4.456  -1.578   0.000  1.00  0.00     0.216 C 
ATOM     18  C   UNL     1       0.580  -0.730   0.000  1.00  0.00     0.103 C 
ATOM     19  O   UNL     1       0.541  -2.229   0.000  1.00  0.00    -0.364 OA
ATOM     20  C   UNL     1      -0.738  -1.447   0.000  1.00  0.00     0.166 C 
ATOM     21  C   UNL     1      -1.942   2.335   0.000  1.00  0.00     0.023 C 
ATOM     22  C   UNL     1      -3.259   1.618   0.000  1.00  0.00     0.007 C 
ATOM     23  C   UNL     1      -3.736   3.040   0.000  1.00  0.00     0.015 C 
ATOM     24  C   UNL     1      -4.743   1.395   0.000  1.00  0.00     0.015 C 
ENDROOT
BRANCH   1  25
ATOM     25  O   UNL     1      -4.615  -0.598   0.000  1.00  0.00    -0.461 OA
BRANCH  25  26
ATOM     26  C   UNL     1      -4.653  -2.098   0.000  1.00  0.00     0.308 C 
ATOM     27  O   UNL     1      -3.373  -2.880   0.000  1.00  0.00    -0.252 OA
BRANCH  26  28
ATOM     28  C   UNL     1      -5.971  -2.814   0.000  1.00  0.00     0.096 C 
ATOM     29  C   UNL     1      -6.009  -4.314   0.000  1.00  0.00     0.020 C 
BRANCH  28  30
ATOM     30  C   UNL     1      -7.250  -2.032   0.000  1.00  0.00     0.011 C 
ATOM     31  C   UNL     1      -8.568  -2.749   0.000  1.00  0.00     0.005 C 
ENDBRANCH  28  30
ENDBRANCH  26  28
ENDBRANCH  25  26
ENDBRANCH   1  25
BRANCH  21  32
ATOM     32  C   UNL     1      -1.904   3.835   0.000  1.00  0.00     0.128 C 
BRANCH  32  33
ATOM     33  C   UNL     1      -0.586   4.551   0.000  1.00  0.00     0.305 C 
ATOM     34  O   UNL     1       0.694   3.769   0.000  1.00  0.00    -0.252 OA
BRANCH  33  35
ATOM     35  O   UNL     1      -0.548   6.051   0.000  1.00  0.00    -0.469 OA
ATOM     36  C   UNL     1       0.769   6.768   0.000  1.00  0.00     0.282 C 
ENDBRANCH  33  35
ENDBRANCH  32  33
ENDBRANCH  21  32
BRANCH  17  37
ATOM     37  C   UNL     1       5.774  -0.861   0.000  1.00  0.00     0.031 A 
ATOM     38  C   UNL     1       5.969   0.626   0.000  1.00  0.00     0.202 A 
ATOM     39  C   UNL     1       7.128  -1.506   0.000  1.00  0.00     0.049 A 
ATOM     40  O   UNL     1       7.443   0.900   0.000  1.00  0.00    -0.472 OA
ATOM     41  C   UNL     1       8.160  -0.417   0.000  1.00  0.00     0.195 A 
ENDBRANCH  17  37
TORSDOF 8
