REMARK SMILES COc1ccc([C@@H]2CCC[C@H](CCc3ccc(O)cc3)O2)cc1
REMARK SMILES IDX 12 1 11 2 7 3 8 4 21 5 9 6 10 7 6 8 3 9 4 10 23 11 5 12
REMARK SMILES IDX 22 13 2 14 1 15 13 16 14 17 15 18 20 19 16 20 19 21 17 22
REMARK SMILES IDX 18 23
REMARK H PARENT 18 24
ROOT
ATOM      1  C   UNL     1      -1.817   0.267   0.000  1.00  0.00     0.037 C 
ENDROOT
BRANCH   1   2
ATOM      2  C   UNL     1      -0.543   1.059   0.000  1.00  0.00     0.119 C 
ATOM      3  C   UNL     1       2.053   1.144   0.000  1.00  0.00     0.148 C 
ATOM      4  C   UNL     1       2.004   2.643   0.000  1.00  0.00     0.037 C 
ATOM      5  O   UNL     1       0.780   0.352   0.000  1.00  0.00    -0.370 OA
ATOM      6  C   UNL     1       0.681   3.350   0.000  1.00  0.00     0.006 C 
ATOM      7  C   UNL     1      -0.593   2.558   0.000  1.00  0.00     0.032 C 
BRANCH   3   8
ATOM      8  C   UNL     1       3.376   0.437   0.000  1.00  0.00    -0.019 A 
ATOM      9  C   UNL     1       6.022  -0.977   0.000  1.00  0.00     0.118 A 
ATOM     10  C   UNL     1       4.748  -1.769   0.000  1.00  0.00     0.047 A 
ATOM     11  C   UNL     1       5.973   0.523   0.000  1.00  0.00     0.047 A 
ATOM     12  C   UNL     1       3.425  -1.062   0.000  1.00  0.00     0.010 A 
ATOM     13  C   UNL     1       4.650   1.230   0.000  1.00  0.00     0.010 A 
BRANCH   9  14
ATOM     14  O   UNL     1       7.345  -1.683   0.000  1.00  0.00    -0.497 OA
ATOM     15  C   UNL     1       7.394  -3.183   0.000  1.00  0.00     0.278 C 
ENDBRANCH   9  14
ENDBRANCH   3   8
ENDBRANCH   1   2
BRANCH   1  16
ATOM     16  C   UNL     1      -3.140   0.974   0.000  1.00  0.00     0.038 C 
BRANCH  16  17
ATOM     17  C   UNL     1      -4.414   0.181   0.000  1.00  0.00    -0.048 A 
ATOM     18  C   UNL     1      -5.737   0.888   0.000  1.00  0.00     0.007 A 
ATOM     19  C   UNL     1      -4.364  -1.318   0.000  1.00  0.00     0.007 A 
ATOM     20  C   UNL     1      -7.010   0.096   0.000  1.00  0.00     0.046 A 
ATOM     21  C   UNL     1      -5.638  -2.110   0.000  1.00  0.00     0.046 A 
ATOM     22  C   UNL     1      -6.961  -1.403   0.000  1.00  0.00     0.115 A 
BRANCH  22  23
ATOM     23  O   UNL     1      -8.235  -2.196   0.000  1.00  0.00    -0.508 OA
ATOM     24  H   UNL     1       0.000   0.000   0.000  1.00  0.00     0.293 HD
ENDBRANCH  22  23
ENDBRANCH  16  17
ENDBRANCH   1  16
TORSDOF 6
