REMARK SMILES COc1cc2c(c(O)c1OC)c(=O)c1ccccc1n2COC(C)=O
REMARK SMILES IDX 21 1 20 2 3 3 4 4 9 5 5 6 7 7 6 8 12 9 19 10 14 11 18 12
REMARK SMILES IDX 15 13 17 14 16 15 13 16 2 17 1 18 10 19 11 20 8 21 22 23
REMARK SMILES IDX 23 24 24 25 25 26
REMARK H PARENT 8 22
ROOT
ATOM      1  C   UNL     1       1.658   1.629   0.000  1.00  0.00     0.360 C 
ENDROOT
BRANCH   1   2
ATOM      2  N   UNL     1       1.003   0.280   0.000  1.00  0.00    -0.306 N 
ATOM      3  C   UNL     1      -2.830   1.309   0.000  1.00  0.00     0.166 A 
ATOM      4  C   UNL     1      -1.334   1.415   0.000  1.00  0.00     0.077 A 
ATOM      5  C   UNL     1      -3.486  -0.040   0.000  1.00  0.00     0.203 A 
ATOM      6  C   UNL     1      -0.494   0.173   0.000  1.00  0.00     0.063 A 
ATOM      7  C   UNL     1      -2.645  -1.283   0.000  1.00  0.00     0.175 A 
ATOM      8  C   UNL     1      -1.149  -1.176   0.000  1.00  0.00     0.092 A 
ATOM      9  C   UNL     1      -0.309  -2.418   0.000  1.00  0.00     0.201 A 
ATOM     10  C   UNL     1       1.843  -0.962   0.000  1.00  0.00     0.055 A 
ATOM     11  C   UNL     1       1.188  -2.312   0.000  1.00  0.00     0.047 A 
ATOM     12  C   UNL     1       3.339  -0.856   0.000  1.00  0.00     0.027 A 
ATOM     13  C   UNL     1       2.028  -3.554   0.000  1.00  0.00     0.014 A 
ATOM     14  C   UNL     1       4.180  -2.098   0.000  1.00  0.00     0.002 A 
ATOM     15  C   UNL     1       3.524  -3.447   0.000  1.00  0.00     0.001 A 
ATOM     16  O   UNL     1      -0.964  -3.768   0.000  1.00  0.00    -0.288 OA
BRANCH   3  17
ATOM     17  O   UNL     1      -3.671   2.551   0.000  1.00  0.00    -0.493 OA
ATOM     18  C   UNL     1      -3.015   3.900   0.000  1.00  0.00     0.278 C 
ENDBRANCH   3  17
BRANCH   5  19
ATOM     19  O   UNL     1      -4.982  -0.147   0.000  1.00  0.00    -0.490 OA
ATOM     20  C   UNL     1      -5.823   1.095   0.000  1.00  0.00     0.278 C 
ENDBRANCH   5  19
BRANCH   7  21
ATOM     21  O   UNL     1      -3.301  -2.632   0.000  1.00  0.00    -0.504 OA
ATOM     22  H   UNL     1       0.000   0.000   0.000  1.00  0.00     0.293 HD
ENDBRANCH   7  21
ENDBRANCH   1   2
BRANCH   1  23
ATOM     23  O   UNL     1       3.155   1.736   0.000  1.00  0.00    -0.444 OA
BRANCH  23  24
ATOM     24  C   UNL     1       3.810   3.085   0.000  1.00  0.00     0.304 C 
ATOM     25  C   UNL     1       5.306   3.192   0.000  1.00  0.00     0.139 C 
ATOM     26  O   UNL     1       2.970   4.327   0.000  1.00  0.00    -0.253 OA
ENDBRANCH  23  24
ENDBRANCH   1  23
TORSDOF 6
