REMARK SMILES CC1(C)C=Cc2c(ccc3c(=O)cc(-c4ccc5c(c4)OCO5)oc23)O1
REMARK SMILES IDX 1 1 2 2 3 3 4 4 5 5 6 6 7 7 8 8 9 9 10 10 25 11 24 12 14 13
REMARK SMILES IDX 13 14 11 15 12 16 26 17 15 18 16 19 20 20 17 21 19 22 18 23
REMARK SMILES IDX 21 24 23 25 22 26
REMARK H PARENT
ROOT
ATOM      1  C   UNL     1       6.715  -1.510   0.000  1.00  0.00     0.061 C 
ATOM      2  C   UNL     1       5.233  -1.739   0.000  1.00  0.00     0.122 C 
ATOM      3  C   UNL     1       5.716  -3.159   0.000  1.00  0.00     0.061 C 
ATOM      4  C   UNL     1       3.918  -2.462   0.000  1.00  0.00     0.021 C 
ATOM      5  C   UNL     1       2.635  -1.685   0.000  1.00  0.00     0.015 C 
ATOM      6  C   UNL     1       2.667  -0.185   0.000  1.00  0.00     0.060 A 
ATOM      7  C   UNL     1       3.981   0.538   0.000  1.00  0.00     0.131 A 
ATOM      8  C   UNL     1       4.013   2.037   0.000  1.00  0.00     0.048 A 
ATOM      9  C   UNL     1       2.730   2.814   0.000  1.00  0.00     0.020 A 
ATOM     10  C   UNL     1       1.415   2.092   0.000  1.00  0.00     0.066 A 
ATOM     11  C   UNL     1       1.384   0.592   0.000  1.00  0.00     0.149 A 
ATOM     12  O   UNL     1       0.069  -0.130   0.000  1.00  0.00    -0.455 OA
ATOM     13  C   UNL     1      -1.214   0.647   0.000  1.00  0.00     0.138 A 
ATOM     14  C   UNL     1      -1.182   2.146   0.000  1.00  0.00     0.100 A 
ATOM     15  C   UNL     1       0.132   2.869   0.000  1.00  0.00     0.193 A 
ATOM     16  O   UNL     1       0.164   4.369   0.000  1.00  0.00    -0.289 OA
ATOM     17  O   UNL     1       5.264  -0.239   0.000  1.00  0.00    -0.483 OA
ENDROOT
BRANCH  13  18
ATOM     18  C   UNL     1      -2.528  -0.076   0.000  1.00  0.00     0.021 A 
ATOM     19  C   UNL     1      -2.560  -1.575   0.000  1.00  0.00     0.016 A 
ATOM     20  C   UNL     1      -3.811   0.701   0.000  1.00  0.00     0.062 A 
ATOM     21  C   UNL     1      -3.874  -2.298   0.000  1.00  0.00     0.051 A 
ATOM     22  C   UNL     1      -5.126  -0.021   0.000  1.00  0.00     0.166 A 
ATOM     23  C   UNL     1      -5.157  -1.521   0.000  1.00  0.00     0.165 A 
ATOM     24  O   UNL     1      -6.542   0.472   0.000  1.00  0.00    -0.454 OA
ATOM     25  O   UNL     1      -6.593  -1.954   0.000  1.00  0.00    -0.454 OA
ATOM     26  C   UNL     1      -7.449  -0.723   0.000  1.00  0.00     0.468 C 
ENDBRANCH  13  18
TORSDOF 1
