REMARK SMILES C=C[C@]1(C)CC2=C(O)C(=C)[C@@]34O[C@]3(CCCC4(C)C)[C@]2(C)[C@@H](O)C1
REMARK SMILES IDX 3 1 4 2 5 3 6 4 7 5 9 6 10 7 11 8 12 9 13 10 14 11 15 12
REMARK SMILES IDX 16 13 17 14 18 15 19 16 20 17 21 18 22 19 24 20 2 21 1 22
REMARK SMILES IDX 23 23 8 25
REMARK H PARENT 23 24 8 26
ROOT
ATOM      1  C   UNL     1      -3.556  -0.341   0.000  1.00  0.00    -0.009 C 
ATOM      2  C   UNL     1      -4.790  -1.194   0.000  1.00  0.00     0.016 C 
ATOM      3  C   UNL     1      -2.688   0.882   0.000  1.00  0.00     0.046 C 
ATOM      4  C   UNL     1      -1.195   0.742   0.000  1.00  0.00    -0.016 C 
ATOM      5  C   UNL     1      -0.327   1.965   0.000  1.00  0.00     0.121 C 
ATOM      6  C   UNL     1       1.167   1.825   0.000  1.00  0.00     0.022 C 
ATOM      7  C   UNL     1       2.035   3.049   0.000  1.00  0.00     0.020 C 
ATOM      8  C   UNL     1       1.792   0.462   0.000  1.00  0.00     0.132 C 
ATOM      9  O   UNL     1       2.417  -0.902   0.000  1.00  0.00    -0.356 OA
ATOM     10  C   UNL     1       0.924  -0.761   0.000  1.00  0.00     0.115 C 
ATOM     11  C   UNL     1       1.549  -2.125   0.000  1.00  0.00     0.040 C 
ATOM     12  C   UNL     1       3.043  -2.265   0.000  1.00  0.00     0.004 C 
ATOM     13  C   UNL     1       3.911  -1.042   0.000  1.00  0.00     0.010 C 
ATOM     14  C   UNL     1       3.286   0.322   0.000  1.00  0.00     0.001 C 
ATOM     15  C   UNL     1       3.164   1.817   0.000  1.00  0.00     0.014 C 
ATOM     16  C   UNL     1       4.737   0.701   0.000  1.00  0.00     0.014 C 
ATOM     17  C   UNL     1      -0.569  -0.621   0.000  1.00  0.00     0.051 C 
ATOM     18  C   UNL     1       0.056  -1.985   0.000  1.00  0.00     0.022 C 
ATOM     19  C   UNL     1      -1.438  -1.845   0.000  1.00  0.00     0.128 C 
ATOM     20  C   UNL     1      -2.931  -1.704   0.000  1.00  0.00     0.044 C 
ENDROOT
BRANCH   1  21
ATOM     21  C   UNL     1      -4.610   0.726   0.000  1.00  0.00    -0.028 C 
ATOM     22  C   UNL     1      -4.213   2.173   0.000  1.00  0.00     0.004 C 
ENDBRANCH   1  21
BRANCH  19  23
ATOM     23  O   UNL     1      -0.812  -3.208   0.000  1.00  0.00    -0.392 OA
ATOM     24  H   UNL     1       0.000   0.000   0.000  1.00  0.00     0.210 HD
ENDBRANCH  19  23
BRANCH   5  25
ATOM     25  O   UNL     1      -0.952   3.329   0.000  1.00  0.00    -0.508 OA
ATOM     26  H   UNL     1       0.000   0.000   0.000  1.00  0.00     0.293 HD
ENDBRANCH   5  25
TORSDOF 3
