REMARK SMILES COc1cc([C@H]2OC[C@H](Cc3ccc(OC)c(OC)c3)[C@@H]2CO)ccc1O
REMARK SMILES IDX 6 1 7 2 8 3 9 4 21 5 5 6 3 7 4 8 26 9 25 10 24 11 2 12 1 13
REMARK SMILES IDX 27 14 22 16 23 17 10 19 11 20 12 21 20 22 13 23 17 24 14 25
REMARK SMILES IDX 18 26 19 27 15 28 16 29
REMARK H PARENT 27 15 23 18
ROOT
ATOM      1  C   UNL     1       1.763  -1.223   0.000  1.00  0.00     0.154 C 
ATOM      2  O   UNL     1       1.918  -2.715   0.000  1.00  0.00    -0.373 OA
ATOM      3  C   UNL     1       0.547  -3.324   0.000  1.00  0.00     0.165 C 
ATOM      4  C   UNL     1      -0.456  -2.208   0.000  1.00  0.00     0.028 C 
ATOM      5  C   UNL     1       0.296  -0.910   0.000  1.00  0.00     0.054 C 
ENDROOT
BRANCH   1   6
ATOM      6  C   UNL     1       2.878  -0.221   0.000  1.00  0.00    -0.015 A 
ATOM      7  C   UNL     1       5.420   0.316   0.000  1.00  0.00     0.160 A 
ATOM      8  C   UNL     1       4.304  -0.686   0.000  1.00  0.00     0.056 A 
ATOM      9  C   UNL     1       5.110   1.784   0.000  1.00  0.00     0.157 A 
ATOM     10  C   UNL     1       3.684   2.249   0.000  1.00  0.00     0.050 A 
ATOM     11  C   UNL     1       2.568   1.247   0.000  1.00  0.00     0.010 A 
BRANCH   7  12
ATOM     12  O   UNL     1       6.846  -0.149   0.000  1.00  0.00    -0.493 OA
ATOM     13  C   UNL     1       7.157  -1.616   0.000  1.00  0.00     0.278 C 
ENDBRANCH   7  12
BRANCH   9  14
ATOM     14  O   UNL     1       6.226   2.786   0.000  1.00  0.00    -0.504 OA
ATOM     15  H   UNL     1       0.000   0.000   0.000  1.00  0.00     0.293 HD
ENDBRANCH   9  14
ENDBRANCH   1   6
BRANCH   5  16
ATOM     16  C   UNL     1      -0.313   0.461   0.000  1.00  0.00     0.163 C 
BRANCH  16  17
ATOM     17  O   UNL     1       0.570   1.674   0.000  1.00  0.00    -0.396 OA
ATOM     18  H   UNL     1       0.000   0.000   0.000  1.00  0.00     0.210 HD
ENDBRANCH  16  17
ENDBRANCH   5  16
BRANCH   4  19
ATOM     19  C   UNL     1      -1.948  -2.363   0.000  1.00  0.00     0.042 C 
BRANCH  19  20
ATOM     20  C   UNL     1      -2.828  -1.149   0.000  1.00  0.00    -0.044 A 
ATOM     21  C   UNL     1      -2.216   0.221   0.000  1.00  0.00     0.008 A 
ATOM     22  C   UNL     1      -4.320  -1.304   0.000  1.00  0.00     0.054 A 
ATOM     23  C   UNL     1      -3.097   1.436   0.000  1.00  0.00     0.051 A 
ATOM     24  C   UNL     1      -5.200  -0.089   0.000  1.00  0.00     0.160 A 
ATOM     25  C   UNL     1      -4.589   1.280   0.000  1.00  0.00     0.160 A 
BRANCH  24  26
ATOM     26  O   UNL     1      -6.692  -0.244   0.000  1.00  0.00    -0.493 OA
ATOM     27  C   UNL     1      -7.304  -1.614   0.000  1.00  0.00     0.278 C 
ENDBRANCH  24  26
BRANCH  25  28
ATOM     28  O   UNL     1      -5.469   2.495   0.000  1.00  0.00    -0.493 OA
ATOM     29  C   UNL     1      -4.857   3.865   0.000  1.00  0.00     0.278 C 
ENDBRANCH  25  28
ENDBRANCH  19  20
ENDBRANCH   4  19
TORSDOF 9
