REMARK SMILES COc1cc(C)ccc1C(C)C
REMARK SMILES IDX 3 1 4 2 5 3 6 4 7 5 8 6 9 7 2 8 1 9 10 10 11 11 12 12
REMARK H PARENT
ROOT
ATOM      1  C   UNL     1      -0.002  -0.760   0.000  1.00  0.00     0.122 A 
ATOM      2  C   UNL     1      -1.497  -0.880   0.000  1.00  0.00     0.050 A 
ATOM      3  C   UNL     1      -2.348   0.356   0.000  1.00  0.00    -0.047 A 
ATOM      4  C   UNL     1      -3.844   0.236   0.000  1.00  0.00     0.044 C 
ATOM      5  C   UNL     1      -1.704   1.710   0.000  1.00  0.00     0.004 A 
ATOM      6  C   UNL     1      -0.209   1.829   0.000  1.00  0.00     0.008 A 
ATOM      7  C   UNL     1       0.642   0.594   0.000  1.00  0.00    -0.003 A 
ENDROOT
BRANCH   1   8
ATOM      8  O   UNL     1       0.849  -1.996   0.000  1.00  0.00    -0.496 OA
ATOM      9  C   UNL     1       0.204  -3.350   0.000  1.00  0.00     0.278 C 
ENDBRANCH   1   8
BRANCH   7  10
ATOM     10  C   UNL     1       2.138   0.714   0.000  1.00  0.00     0.017 C 
ATOM     11  C   UNL     1       2.988  -0.522   0.000  1.00  0.00     0.012 C 
ATOM     12  C   UNL     1       2.782   2.068   0.000  1.00  0.00     0.012 C 
ENDBRANCH   7  10
TORSDOF 2
