REMARK SMILES COc1ccc2c(OC)c3ccoc3nc2c1CC=C(C)C
REMARK SMILES IDX 18 1 17 2 3 3 4 4 5 5 16 6 6 7 15 8 7 9 14 10 10 11 13 12
REMARK SMILES IDX 11 13 12 14 2 15 1 16 8 17 9 18 19 19 20 20 21 21 22 22
REMARK H PARENT
ROOT
ATOM      1  C   UNL     1       2.222   0.885   0.000  1.00  0.00     0.069 C 
ENDROOT
BRANCH   1   2
ATOM      2  C   UNL     1       1.251  -0.258   0.000  1.00  0.00     0.024 A 
ATOM      3  C   UNL     1       1.756  -1.670   0.000  1.00  0.00     0.124 A 
ATOM      4  C   UNL     1       0.784  -2.813   0.000  1.00  0.00     0.047 A 
ATOM      5  C   UNL     1      -0.691  -2.544   0.000  1.00  0.00     0.018 A 
ATOM      6  C   UNL     1      -0.225   0.012   0.000  1.00  0.00     0.085 A 
ATOM      7  C   UNL     1      -1.196  -1.131   0.000  1.00  0.00     0.044 A 
ATOM      8  N   UNL     1      -0.729   1.424   0.000  1.00  0.00    -0.212 NA
ATOM      9  C   UNL     1      -2.671  -0.862   0.000  1.00  0.00     0.141 A 
ATOM     10  C   UNL     1      -2.204   1.694   0.000  1.00  0.00     0.230 A 
ATOM     11  C   UNL     1      -3.176   0.551   0.000  1.00  0.00     0.083 A 
ATOM     12  O   UNL     1      -2.992   2.971   0.000  1.00  0.00    -0.446 OA
ATOM     13  C   UNL     1      -4.563   1.121   0.000  1.00  0.00     0.056 A 
ATOM     14  C   UNL     1      -4.449   2.617   0.000  1.00  0.00     0.198 A 
BRANCH   3  15
ATOM     15  O   UNL     1       3.231  -1.940   0.000  1.00  0.00    -0.496 OA
ATOM     16  C   UNL     1       3.736  -3.352   0.000  1.00  0.00     0.278 C 
ENDBRANCH   3  15
BRANCH   9  17
ATOM     17  O   UNL     1      -3.642  -2.005   0.000  1.00  0.00    -0.495 OA
ATOM     18  C   UNL     1      -5.118  -1.736   0.000  1.00  0.00     0.278 C 
ENDBRANCH   9  17
ENDBRANCH   1   2
BRANCH   1  19
ATOM     19  C   UNL     1       3.698   0.616   0.000  1.00  0.00    -0.023 C 
BRANCH  19  20
ATOM     20  C   UNL     1       4.669   1.759   0.000  1.00  0.00    -0.080 C 
ATOM     21  C   UNL     1       6.145   1.490   0.000  1.00  0.00     0.039 C 
ATOM     22  C   UNL     1       4.165   3.172   0.000  1.00  0.00     0.039 C 
ENDBRANCH  19  20
ENDBRANCH   1  19
TORSDOF 5
