REMARK SMILES CC(=O)Oc1cc(C(=O)O)cc(OC(C)=O)c1OC(C)=O
REMARK SMILES IDX 5 1 6 2 7 3 11 4 12 5 17 6 4 7 2 8 1 9 3 10 18 11 19 12
REMARK SMILES IDX 20 13 21 14 8 15 9 16 10 17 13 19 14 20 15 21 16 22
REMARK H PARENT 10 18
ROOT
ATOM      1  C   UNL     1      -0.460  -0.683   0.000  1.00  0.00     0.178 A 
ATOM      2  C   UNL     1      -1.856  -0.135   0.000  1.00  0.00     0.067 A 
ATOM      3  C   UNL     1      -2.080   1.348   0.000  1.00  0.00     0.067 A 
ATOM      4  C   UNL     1      -0.907   2.283   0.000  1.00  0.00     0.067 A 
ATOM      5  C   UNL     1       0.489   1.735   0.000  1.00  0.00     0.178 A 
ATOM      6  C   UNL     1       0.713   0.252   0.000  1.00  0.00     0.216 A 
ENDROOT
BRANCH   1   7
ATOM      7  O   UNL     1      -0.237  -2.167   0.000  1.00  0.00    -0.423 OA
BRANCH   7   8
ATOM      8  C   UNL     1      -1.410  -3.102   0.000  1.00  0.00     0.308 C 
ATOM      9  C   UNL     1      -1.187  -4.585   0.000  1.00  0.00     0.139 C 
ATOM     10  O   UNL     1      -2.806  -2.553   0.000  1.00  0.00    -0.252 OA
ENDBRANCH   7   8
ENDBRANCH   1   7
BRANCH   6  11
ATOM     11  O   UNL     1       2.109  -0.296   0.000  1.00  0.00    -0.419 OA
BRANCH  11  12
ATOM     12  C   UNL     1       2.332  -1.780   0.000  1.00  0.00     0.308 C 
ATOM     13  C   UNL     1       3.728  -2.328   0.000  1.00  0.00     0.139 C 
ATOM     14  O   UNL     1       1.159  -2.715   0.000  1.00  0.00    -0.252 OA
ENDBRANCH  11  12
ENDBRANCH   6  11
BRANCH   3  15
ATOM     15  C   UNL     1      -3.476   1.897   0.000  1.00  0.00     0.335 C 
ATOM     16  O   UNL     1      -4.649   0.962   0.000  1.00  0.00    -0.246 OA
BRANCH  15  17
ATOM     17  O   UNL     1      -3.699   3.380   0.000  1.00  0.00    -0.478 OA
ATOM     18  H   UNL     1       0.000   0.000   0.000  1.00  0.00     0.297 HD
ENDBRANCH  15  17
ENDBRANCH   3  15
BRANCH   5  19
ATOM     19  O   UNL     1       1.662   2.670   0.000  1.00  0.00    -0.423 OA
BRANCH  19  20
ATOM     20  C   UNL     1       3.059   2.122   0.000  1.00  0.00     0.308 C 
ATOM     21  C   UNL     1       4.231   3.057   0.000  1.00  0.00     0.139 C 
ATOM     22  O   UNL     1       3.282   0.638   0.000  1.00  0.00    -0.252 OA
ENDBRANCH  19  20
ENDBRANCH   5  19
TORSDOF 8
