REMARK SMILES C=CCc1c(O)c(OC)cc2c1O[C@H](c1cc(OC)c(OC)c(OC)c1)[C@H]2C
REMARK SMILES IDX 4 1 5 2 7 3 10 4 11 5 12 6 13 7 14 8 27 9 28 10 3 11 2 12
REMARK SMILES IDX 1 13 6 14 8 16 9 17 15 18 16 19 26 20 17 21 23 22 20 23
REMARK SMILES IDX 18 24 19 25 24 26 25 27 21 28 22 29
REMARK H PARENT 6 15
ROOT
ATOM      1  C   UNL     1       3.378  -0.991   0.000  1.00  0.00     0.044 A 
ATOM      2  C   UNL     1       4.621  -0.152   0.000  1.00  0.00     0.165 A 
ATOM      3  C   UNL     1       4.515   1.345   0.000  1.00  0.00     0.161 A 
ATOM      4  C   UNL     1       3.167   2.001   0.000  1.00  0.00     0.058 A 
ATOM      5  C   UNL     1       1.924   1.162   0.000  1.00  0.00     0.005 A 
ATOM      6  C   UNL     1       2.029  -0.335   0.000  1.00  0.00     0.131 A 
ATOM      7  O   UNL     1       0.639  -0.897   0.000  1.00  0.00    -0.484 OA
ATOM      8  C   UNL     1      -0.326   0.251   0.000  1.00  0.00     0.211 C 
ATOM      9  C   UNL     1       0.468   1.524   0.000  1.00  0.00     0.066 C 
ATOM     10  C   UNL     1      -0.095   2.914   0.000  1.00  0.00     0.017 C 
ENDROOT
BRANCH   1  11
ATOM     11  C   UNL     1       3.483  -2.488   0.000  1.00  0.00     0.070 C 
BRANCH  11  12
ATOM     12  C   UNL     1       4.832  -3.144   0.000  1.00  0.00    -0.030 C 
ATOM     13  C   UNL     1       4.938  -4.641   0.000  1.00  0.00     0.004 C 
ENDBRANCH  11  12
ENDBRANCH   1  11
BRANCH   2  14
ATOM     14  O   UNL     1       5.970  -0.808   0.000  1.00  0.00    -0.504 OA
ATOM     15  H   UNL     1       0.000   0.000   0.000  1.00  0.00     0.293 HD
ENDBRANCH   2  14
BRANCH   3  16
ATOM     16  O   UNL     1       5.758   2.184   0.000  1.00  0.00    -0.493 OA
ATOM     17  C   UNL     1       5.653   3.680   0.000  1.00  0.00     0.278 C 
ENDBRANCH   3  16
BRANCH   8  18
ATOM     18  C   UNL     1      -1.822   0.146   0.000  1.00  0.00     0.001 A 
ATOM     19  C   UNL     1      -2.662   1.389   0.000  1.00  0.00     0.058 A 
ATOM     20  C   UNL     1      -2.479  -1.203   0.000  1.00  0.00     0.058 A 
ATOM     21  C   UNL     1      -4.158   1.283   0.000  1.00  0.00     0.165 A 
ATOM     22  C   UNL     1      -3.975  -1.308   0.000  1.00  0.00     0.165 A 
ATOM     23  C   UNL     1      -4.815  -0.065   0.000  1.00  0.00     0.203 A 
BRANCH  21  24
ATOM     24  O   UNL     1      -4.998   2.526   0.000  1.00  0.00    -0.493 OA
ATOM     25  C   UNL     1      -4.341   3.875   0.000  1.00  0.00     0.278 C 
ENDBRANCH  21  24
BRANCH  22  26
ATOM     26  O   UNL     1      -4.632  -2.657   0.000  1.00  0.00    -0.493 OA
ATOM     27  C   UNL     1      -3.793  -3.900   0.000  1.00  0.00     0.278 C 
ENDBRANCH  22  26
BRANCH  23  28
ATOM     28  O   UNL     1      -6.311  -0.171   0.000  1.00  0.00    -0.490 OA
ATOM     29  C   UNL     1      -6.968  -1.520   0.000  1.00  0.00     0.278 C 
ENDBRANCH  23  28
ENDBRANCH   8  18
TORSDOF 8
