REMARK SMILES COc1cc2c(c3c1c(=O)c1ccccc1n3C)C=CC(C)(C)O2
REMARK SMILES IDX 3 1 4 2 5 3 6 4 19 5 20 6 21 7 22 8 23 9 24 10 7 11 8 12
REMARK SMILES IDX 9 13 10 14 11 15 12 16 13 17 14 18 15 19 16 20 17 21 18 22
REMARK SMILES IDX 2 23 1 24
REMARK H PARENT
ROOT
ATOM      1  C   UNL     1      -0.278  -2.256   0.000  1.00  0.00     0.135 A 
ATOM      2  C   UNL     1      -1.764  -2.051   0.000  1.00  0.00     0.094 A 
ATOM      3  C   UNL     1      -2.329  -0.662   0.000  1.00  0.00     0.133 A 
ATOM      4  C   UNL     1      -1.409   0.522   0.000  1.00  0.00     0.041 A 
ATOM      5  C   UNL     1      -1.974   1.912   0.000  1.00  0.00     0.014 C 
ATOM      6  C   UNL     1      -3.459   2.117   0.000  1.00  0.00     0.021 C 
ATOM      7  C   UNL     1      -4.380   0.933   0.000  1.00  0.00     0.122 C 
ATOM      8  C   UNL     1      -5.651   0.135   0.000  1.00  0.00     0.061 C 
ATOM      9  C   UNL     1      -5.386   2.046   0.000  1.00  0.00     0.061 C 
ATOM     10  O   UNL     1      -3.815  -0.456   0.000  1.00  0.00    -0.483 OA
ATOM     11  C   UNL     1       0.077   0.317   0.000  1.00  0.00     0.067 A 
ATOM     12  C   UNL     1       0.642  -1.072   0.000  1.00  0.00     0.089 A 
ATOM     13  C   UNL     1       2.128  -1.278   0.000  1.00  0.00     0.200 A 
ATOM     14  O   UNL     1       2.693  -2.667   0.000  1.00  0.00    -0.288 OA
ATOM     15  C   UNL     1       3.049  -0.093   0.000  1.00  0.00     0.046 A 
ATOM     16  C   UNL     1       4.535  -0.299   0.000  1.00  0.00     0.014 A 
ATOM     17  C   UNL     1       5.456   0.885   0.000  1.00  0.00     0.001 A 
ATOM     18  C   UNL     1       4.891   2.275   0.000  1.00  0.00     0.002 A 
ATOM     19  C   UNL     1       3.405   2.480   0.000  1.00  0.00     0.027 A 
ATOM     20  C   UNL     1       2.484   1.296   0.000  1.00  0.00     0.052 A 
ATOM     21  N   UNL     1       0.998   1.501   0.000  1.00  0.00    -0.343 N 
ATOM     22  C   UNL     1       0.433   2.891   0.000  1.00  0.00     0.150 C 
ENDROOT
BRANCH   1  23
ATOM     23  O   UNL     1       0.287  -3.646   0.000  1.00  0.00    -0.496 OA
ATOM     24  C   UNL     1      -0.634  -4.830   0.000  1.00  0.00     0.278 C 
ENDBRANCH   1  23
TORSDOF 1
