REMARK SMILES COc1ccc([C@H]2O[C@@H](c3ccc(OC)c(OC)c3)[C@@H](C)[C@@H]2C)cc1OC
REMARK SMILES IDX 7 1 8 2 9 3 20 4 21 5 22 6 23 7 6 8 3 9 4 10 25 11 5 12
REMARK SMILES IDX 24 13 2 14 1 15 26 16 27 17 10 18 11 19 19 20 12 21 16 22
REMARK SMILES IDX 13 23 17 24 18 25 14 26 15 27
REMARK H PARENT
ROOT
ATOM      1  C   UNL     1       1.148   0.519   0.000  1.00  0.00     0.152 C 
ATOM      2  O   UNL     1      -0.142  -0.245   0.000  1.00  0.00    -0.365 OA
ATOM      3  C   UNL     1      -1.268   0.746   0.000  1.00  0.00     0.152 C 
ATOM      4  C   UNL     1      -0.673   2.123   0.000  1.00  0.00     0.025 C 
ATOM      5  C   UNL     1      -1.438   3.414   0.000  1.00  0.00     0.011 C 
ATOM      6  C   UNL     1       0.820   1.983   0.000  1.00  0.00     0.025 C 
ATOM      7  C   UNL     1       1.812   3.108   0.000  1.00  0.00     0.011 C 
ENDROOT
BRANCH   1   8
ATOM      8  C   UNL     1       2.525  -0.076   0.000  1.00  0.00    -0.015 A 
ATOM      9  C   UNL     1       5.279  -1.266   0.000  1.00  0.00     0.160 A 
ATOM     10  C   UNL     1       4.075  -2.161   0.000  1.00  0.00     0.051 A 
ATOM     11  C   UNL     1       5.106   0.224   0.000  1.00  0.00     0.161 A 
ATOM     12  C   UNL     1       2.698  -1.566   0.000  1.00  0.00     0.010 A 
ATOM     13  C   UNL     1       3.729   0.819   0.000  1.00  0.00     0.056 A 
BRANCH   9  14
ATOM     14  O   UNL     1       6.656  -1.861   0.000  1.00  0.00    -0.493 OA
ATOM     15  C   UNL     1       6.829  -3.351   0.000  1.00  0.00     0.278 C 
ENDBRANCH   9  14
BRANCH  11  16
ATOM     16  O   UNL     1       6.310   1.119   0.000  1.00  0.00    -0.493 OA
ATOM     17  C   UNL     1       6.136   2.609   0.000  1.00  0.00     0.278 C 
ENDBRANCH  11  16
ENDBRANCH   1   8
BRANCH   3  18
ATOM     18  C   UNL     1      -2.732   0.418   0.000  1.00  0.00    -0.015 A 
ATOM     19  C   UNL     1      -3.748   1.522   0.000  1.00  0.00     0.010 A 
ATOM     20  C   UNL     1      -3.180  -1.014   0.000  1.00  0.00     0.056 A 
ATOM     21  C   UNL     1      -5.212   1.194   0.000  1.00  0.00     0.051 A 
ATOM     22  C   UNL     1      -4.643  -1.341   0.000  1.00  0.00     0.161 A 
ATOM     23  C   UNL     1      -5.659  -0.238   0.000  1.00  0.00     0.160 A 
BRANCH  22  24
ATOM     24  O   UNL     1      -5.091  -2.773   0.000  1.00  0.00    -0.493 OA
ATOM     25  C   UNL     1      -4.075  -3.877   0.000  1.00  0.00     0.278 C 
ENDBRANCH  22  24
BRANCH  23  26
ATOM     26  O   UNL     1      -7.123  -0.566   0.000  1.00  0.00    -0.493 OA
ATOM     27  C   UNL     1      -8.139   0.538   0.000  1.00  0.00     0.278 C 
ENDBRANCH  23  26
ENDBRANCH   3  18
TORSDOF 6
