REMARK SMILES COC1=CC(=O)C([C@@H]2COc3c(ccc(O)c3OC)C2)=CC1=O
REMARK SMILES IDX 8 1 9 2 10 3 11 4 12 5 13 6 14 7 15 8 17 9 20 10 7 11 3 12
REMARK SMILES IDX 4 13 22 14 5 15 21 16 23 17 6 18 2 19 1 20 18 21 19 22 16 23
REMARK H PARENT 16 24
ROOT
ATOM      1  C   UNL     1      -0.271  -0.213   0.000  1.00  0.00     0.066 C 
ATOM      2  C   UNL     1       0.417  -1.546   0.000  1.00  0.00     0.238 C 
ATOM      3  O   UNL     1       1.915  -1.617   0.000  1.00  0.00    -0.489 OA
ATOM      4  C   UNL     1       2.725  -0.355   0.000  1.00  0.00     0.168 A 
ATOM      5  C   UNL     1       2.038   0.978   0.000  1.00  0.00    -0.001 A 
ATOM      6  C   UNL     1       2.848   2.240   0.000  1.00  0.00     0.011 A 
ATOM      7  C   UNL     1       4.346   2.170   0.000  1.00  0.00     0.051 A 
ATOM      8  C   UNL     1       5.034   0.837   0.000  1.00  0.00     0.161 A 
ATOM      9  C   UNL     1       4.224  -0.425   0.000  1.00  0.00     0.203 A 
ATOM     10  C   UNL     1       0.539   1.049   0.000  1.00  0.00     0.051 C 
ENDROOT
BRANCH   1  11
ATOM     11  C   UNL     1      -1.770  -0.143   0.000  1.00  0.00     0.010 C 
ATOM     12  C   UNL     1      -4.766  -0.001   0.000  1.00  0.00     0.169 C 
ATOM     13  C   UNL     1      -3.956   1.261   0.000  1.00  0.00     0.102 C 
ATOM     14  C   UNL     1      -4.078  -1.334   0.000  1.00  0.00     0.220 C 
ATOM     15  C   UNL     1      -2.458   1.190   0.000  1.00  0.00     0.186 C 
ATOM     16  C   UNL     1      -2.580  -1.405   0.000  1.00  0.00     0.064 C 
ATOM     17  O   UNL     1      -4.889  -2.597   0.000  1.00  0.00    -0.286 OA
ATOM     18  O   UNL     1      -1.647   2.453   0.000  1.00  0.00    -0.289 OA
BRANCH  12  19
ATOM     19  O   UNL     1      -6.265   0.069   0.000  1.00  0.00    -0.493 OA
ATOM     20  C   UNL     1      -6.952   1.402   0.000  1.00  0.00     0.278 C 
ENDBRANCH  12  19
ENDBRANCH   1  11
BRANCH   9  21
ATOM     21  O   UNL     1       4.912  -1.758   0.000  1.00  0.00    -0.490 OA
ATOM     22  C   UNL     1       4.101  -3.021   0.000  1.00  0.00     0.278 C 
ENDBRANCH   9  21
BRANCH   8  23
ATOM     23  O   UNL     1       6.532   0.766   0.000  1.00  0.00    -0.504 OA
ATOM     24  H   UNL     1       0.000   0.000   0.000  1.00  0.00     0.293 HD
ENDBRANCH   8  23
TORSDOF 4
