REMARK SMILES CC(C)(O)CCc1cc(=O)c2cc(O)ccc2[nH]1
REMARK SMILES IDX 5 1 2 2 1 3 3 4 4 5 6 7 7 8 8 9 18 10 9 11 17 12 11 13 16 14
REMARK SMILES IDX 12 15 15 16 13 17 10 19 14 20
REMARK H PARENT 4 6 18 18 14 21
ROOT
ATOM      1  C   UNL     1      -3.149   0.522   0.000  1.00  0.00     0.041 C 
ENDROOT
BRANCH   1   2
ATOM      2  C   UNL     1      -4.648   0.461   0.000  1.00  0.00     0.060 C 
ATOM      3  C   UNL     1      -4.587  -1.038   0.000  1.00  0.00     0.042 C 
ATOM      4  C   UNL     1      -4.708   1.960   0.000  1.00  0.00     0.042 C 
BRANCH   2   5
ATOM      5  O   UNL     1      -6.146   0.400   0.000  1.00  0.00    -0.390 OA
ATOM      6  H   UNL     1       0.000   0.000   0.000  1.00  0.00     0.211 HD
ENDBRANCH   2   5
ENDBRANCH   1   2
BRANCH   1   7
ATOM      7  C   UNL     1      -2.347  -0.746   0.000  1.00  0.00     0.057 C 
BRANCH   7   8
ATOM      8  C   UNL     1      -0.848  -0.684   0.000  1.00  0.00     0.019 A 
ATOM      9  C   UNL     1      -0.046  -1.952   0.000  1.00  0.00     0.074 A 
ATOM     10  N   UNL     1      -0.151   0.644   0.000  1.00  0.00    -0.358 N 
ATOM     11  C   UNL     1       1.453  -1.891   0.000  1.00  0.00     0.189 A 
ATOM     12  C   UNL     1       1.347   0.705   0.000  1.00  0.00     0.050 A 
ATOM     13  C   UNL     1       2.150  -0.563   0.000  1.00  0.00     0.049 A 
ATOM     14  C   UNL     1       2.044   2.033   0.000  1.00  0.00     0.030 A 
ATOM     15  C   UNL     1       3.648  -0.502   0.000  1.00  0.00     0.060 A 
ATOM     16  C   UNL     1       3.543   2.094   0.000  1.00  0.00     0.048 A 
ATOM     17  C   UNL     1       4.345   0.827   0.000  1.00  0.00     0.116 A 
ATOM     18  H   UNL     1       0.000   0.000   0.000  1.00  0.00     0.166 HD
ATOM     19  O   UNL     1       2.255  -3.159   0.000  1.00  0.00    -0.289 OA
BRANCH  17  20
ATOM     20  O   UNL     1       5.844   0.888   0.000  1.00  0.00    -0.508 OA
ATOM     21  H   UNL     1       0.000   0.000   0.000  1.00  0.00     0.293 HD
ENDBRANCH  17  20
ENDBRANCH   7   8
ENDBRANCH   1   7
TORSDOF 5
