REMARK SMILES C=CC[C@]12CC(=O)[C@H](O)[C@](OC)([C@@H](c3ccc4c(c3)OCO4)[C@@H]1C)[C@H]2O
REMARK SMILES IDX 4 1 5 2 6 3 7 4 8 5 10 6 13 7 23 8 24 9 25 10 3 11 2 12 1 13
REMARK SMILES IDX 26 14 14 16 15 17 19 18 16 19 18 20 17 21 20 22 22 23 21 24
REMARK SMILES IDX 11 25 12 26 9 27
REMARK H PARENT 26 15 9 28
ROOT
ATOM      1  C   UNL     1       2.526   0.847   0.000  1.00  0.00     0.013 C 
ATOM      2  C   UNL     1       3.785   0.032   0.000  1.00  0.00     0.089 C 
ATOM      3  C   UNL     1       3.709  -1.466   0.000  1.00  0.00     0.165 C 
ATOM      4  O   UNL     1       4.969  -2.281   0.000  1.00  0.00    -0.297 OA
ATOM      5  C   UNL     1       2.374  -2.150   0.000  1.00  0.00     0.216 C 
ATOM      6  C   UNL     1       1.115  -1.335   0.000  1.00  0.00     0.134 C 
ATOM      7  C   UNL     1       0.168  -0.171   0.000  1.00  0.00     0.061 C 
ATOM      8  C   UNL     1       0.983   1.088   0.000  1.00  0.00     0.006 C 
ATOM      9  C   UNL     1       0.443   2.488   0.000  1.00  0.00     0.009 C 
ATOM     10  C   UNL     1       1.190   0.163   0.000  1.00  0.00     0.157 C 
ENDROOT
BRANCH   1  11
ATOM     11  C   UNL     1       2.601   2.345   0.000  1.00  0.00     0.037 C 
BRANCH  11  12
ATOM     12  C   UNL     1       3.936   3.028   0.000  1.00  0.00    -0.034 C 
ATOM     13  C   UNL     1       4.012   4.526   0.000  1.00  0.00     0.004 C 
ENDBRANCH  11  12
ENDBRANCH   1  11
BRANCH  10  14
ATOM     14  O   UNL     1      -0.069   0.978   0.000  1.00  0.00    -0.389 OA
ATOM     15  H   UNL     1       0.000   0.000   0.000  1.00  0.00     0.211 HD
ENDBRANCH  10  14
BRANCH   7  16
ATOM     16  C   UNL     1      -1.329  -0.253   0.000  1.00  0.00    -0.038 A 
ATOM     17  C   UNL     1      -2.008  -1.590   0.000  1.00  0.00     0.008 A 
ATOM     18  C   UNL     1      -2.149   1.004   0.000  1.00  0.00     0.054 A 
ATOM     19  C   UNL     1      -3.506  -1.672   0.000  1.00  0.00     0.051 A 
ATOM     20  C   UNL     1      -3.647   0.923   0.000  1.00  0.00     0.166 A 
ATOM     21  C   UNL     1      -4.325  -0.415   0.000  1.00  0.00     0.165 A 
ATOM     22  O   UNL     1      -4.709   1.981   0.000  1.00  0.00    -0.454 OA
ATOM     23  O   UNL     1      -5.807  -0.183   0.000  1.00  0.00    -0.454 OA
ATOM     24  C   UNL     1      -6.044   1.298   0.000  1.00  0.00     0.468 C 
ENDBRANCH   7  16
BRANCH   6  25
ATOM     25  O   UNL     1      -0.221  -2.019   0.000  1.00  0.00    -0.372 OA
ATOM     26  C   UNL     1      -0.296  -3.517   0.000  1.00  0.00     0.196 C 
ENDBRANCH   6  25
BRANCH   5  27
ATOM     27  O   UNL     1       2.299  -3.648   0.000  1.00  0.00    -0.382 OA
ATOM     28  H   UNL     1       0.000   0.000   0.000  1.00  0.00     0.211 HD
ENDBRANCH   5  27
TORSDOF 6
