REMARK SMILES COc1cc2c3c(c1OC)-c1cc4c(cc1C[C@@H]3N(C)CC2)OCO4
REMARK SMILES IDX 3 1 4 2 5 3 6 4 7 5 8 6 11 7 12 8 13 9 14 10 15 11 16 12
REMARK SMILES IDX 17 13 18 14 19 15 20 16 21 17 22 18 23 19 24 20 25 21 2 22
REMARK SMILES IDX 1 23 9 24 10 25
REMARK H PARENT
ROOT
ATOM      1  C   UNL     1       2.369   2.069   0.000  1.00  0.00     0.161 A 
ATOM      2  C   UNL     1       3.392   0.972   0.000  1.00  0.00     0.054 A 
ATOM      3  C   UNL     1       2.954  -0.463   0.000  1.00  0.00    -0.037 A 
ATOM      4  C   UNL     1       1.493  -0.801   0.000  1.00  0.00    -0.015 A 
ATOM      5  C   UNL     1       0.469   0.296   0.000  1.00  0.00     0.033 A 
ATOM      6  C   UNL     1       0.907   1.731   0.000  1.00  0.00     0.168 A 
ATOM      7  C   UNL     1      -0.992  -0.042   0.000  1.00  0.00    -0.007 A 
ATOM      8  C   UNL     1      -2.016   1.054   0.000  1.00  0.00     0.059 A 
ATOM      9  C   UNL     1      -3.477   0.716   0.000  1.00  0.00     0.166 A 
ATOM     10  C   UNL     1      -3.915  -0.718   0.000  1.00  0.00     0.166 A 
ATOM     11  C   UNL     1      -2.892  -1.815   0.000  1.00  0.00     0.055 A 
ATOM     12  C   UNL     1      -1.430  -1.477   0.000  1.00  0.00    -0.034 A 
ATOM     13  C   UNL     1      -0.407  -2.573   0.000  1.00  0.00     0.060 C 
ATOM     14  C   UNL     1       1.055  -2.235   0.000  1.00  0.00     0.092 C 
ATOM     15  N   UNL     1       2.078  -3.332   0.000  1.00  0.00    -0.299 NA
ATOM     16  C   UNL     1       1.640  -4.766   0.000  1.00  0.00     0.106 C 
ATOM     17  C   UNL     1       3.540  -2.994   0.000  1.00  0.00     0.089 C 
ATOM     18  C   UNL     1       3.978  -1.559   0.000  1.00  0.00     0.051 C 
ATOM     19  O   UNL     1      -5.415  -0.745   0.000  1.00  0.00    -0.454 OA
ATOM     20  C   UNL     1      -5.904   0.673   0.000  1.00  0.00     0.468 C 
ATOM     21  O   UNL     1      -4.706   1.576   0.000  1.00  0.00    -0.454 OA
ENDROOT
BRANCH   1  22
ATOM     22  O   UNL     1       2.806   3.503   0.000  1.00  0.00    -0.493 OA
ATOM     23  C   UNL     1       4.268   3.841   0.000  1.00  0.00     0.278 C 
ENDBRANCH   1  22
BRANCH   6  24
ATOM     24  O   UNL     1      -0.116   2.827   0.000  1.00  0.00    -0.492 OA
ATOM     25  C   UNL     1       0.322   4.262   0.000  1.00  0.00     0.278 C 
ENDBRANCH   6  24
TORSDOF 2
