REMARK SMILES CC(C)/C=C/[C@@H](C)[C@H]1CC[C@H]2[C@@H]3CC=C4C[C@@H](O)CC[C@]4(C)[C@H]3CC[C@]12C
REMARK SMILES IDX 5 1 4 2 2 3 1 4 3 5 6 6 7 7 8 8 9 9 26 10 10 11 25 12 11 13
REMARK SMILES IDX 24 14 12 15 23 16 13 17 21 18 14 19 20 20 15 21 19 22 16 23
REMARK SMILES IDX 17 24 27 25 22 26 18 27
REMARK H PARENT 18 28
ROOT
ATOM      1  C   UNL     1      -4.070   0.348   0.000  1.00  0.00    -0.028 C 
ENDROOT
BRANCH   1   2
ATOM      2  C   UNL     1      -5.446   0.944   0.000  1.00  0.00    -0.028 C 
BRANCH   2   3
ATOM      3  C   UNL     1      -5.618   2.434   0.000  1.00  0.00     0.005 C 
ATOM      4  C   UNL     1      -6.994   3.030   0.000  1.00  0.00     0.012 C 
ATOM      5  C   UNL     1      -4.413   3.328   0.000  1.00  0.00     0.012 C 
ENDBRANCH   2   3
ENDBRANCH   1   2
BRANCH   1   6
ATOM      6  C   UNL     1      -3.898  -1.143   0.000  1.00  0.00     0.012 C 
ATOM      7  C   UNL     1      -5.102  -2.036   0.000  1.00  0.00     0.012 C 
BRANCH   6   8
ATOM      8  C   UNL     1      -2.521  -1.739   0.000  1.00  0.00     0.002 C 
ATOM      9  C   UNL     1      -2.195  -3.203   0.000  1.00  0.00     0.005 C 
ATOM     10  C   UNL     1      -1.230  -0.976   0.000  1.00  0.00    -0.026 C 
ATOM     11  C   UNL     1      -0.701  -3.344   0.000  1.00  0.00     0.005 C 
ATOM     12  C   UNL     1      -0.933   0.495   0.000  1.00  0.00     0.007 C 
ATOM     13  C   UNL     1      -0.105  -1.968   0.000  1.00  0.00    -0.001 C 
ATOM     14  C   UNL     1       0.489   0.973   0.000  1.00  0.00     0.005 C 
ATOM     15  C   UNL     1       1.317  -1.490   0.000  1.00  0.00     0.000 C 
ATOM     16  C   UNL     1       1.614  -0.020   0.000  1.00  0.00     0.003 C 
ATOM     17  C   UNL     1       2.442  -2.482   0.000  1.00  0.00     0.031 C 
ATOM     18  C   UNL     1       3.035   0.458   0.000  1.00  0.00    -0.008 C 
ATOM     19  C   UNL     1       3.863  -2.004   0.000  1.00  0.00    -0.027 C 
ATOM     20  C   UNL     1       3.333   1.929   0.000  1.00  0.00     0.014 C 
ATOM     21  C   UNL     1       4.160  -0.534   0.000  1.00  0.00    -0.065 C 
ATOM     22  C   UNL     1       4.754   2.406   0.000  1.00  0.00     0.033 C 
ATOM     23  C   UNL     1       5.582  -0.056   0.000  1.00  0.00     0.063 C 
ATOM     24  C   UNL     1       5.879   1.414   0.000  1.00  0.00     0.118 C 
ATOM     25  C   UNL     1      -2.452  -0.106   0.000  1.00  0.00     0.012 C 
ATOM     26  C   UNL     1       1.911   1.451   0.000  1.00  0.00     0.016 C 
BRANCH  24  27
ATOM     27  O   UNL     1       7.301   1.892   0.000  1.00  0.00    -0.393 OA
ATOM     28  H   UNL     1       0.000   0.000   0.000  1.00  0.00     0.210 HD
ENDBRANCH  24  27
ENDBRANCH   6   8
ENDBRANCH   1   6
TORSDOF 5
