REMARK SMILES C[C@@H]1C(O)c2ccc3c(c2[C@](O)(c2ccc4c(c2)OCO4)[C@H]1C)OCO3
REMARK SMILES IDX 1 1 2 2 3 3 5 4 6 5 7 6 8 7 26 8 25 9 24 10 9 11 10 12 11 13
REMARK SMILES IDX 22 14 23 15 4 16 12 18 13 20 14 21 18 22 15 23 17 24 16 25
REMARK SMILES IDX 19 26 21 27 20 28
REMARK H PARENT 4 17 12 19
ROOT
ATOM      1  C   UNL     1       4.875   2.149   0.000  1.00  0.00     0.011 C 
ATOM      2  C   UNL     1       3.633   1.308   0.000  1.00  0.00     0.026 C 
ATOM      3  C   UNL     1       3.740  -0.188   0.000  1.00  0.00     0.148 C 
ATOM      4  C   UNL     1       2.498  -1.029   0.000  1.00  0.00    -0.009 A 
ATOM      5  C   UNL     1       2.605  -2.525   0.000  1.00  0.00     0.011 A 
ATOM      6  C   UNL     1       1.363  -3.366   0.000  1.00  0.00     0.051 A 
ATOM      7  C   UNL     1       0.013  -2.711   0.000  1.00  0.00     0.166 A 
ATOM      8  O   UNL     1      -1.377  -3.275   0.000  1.00  0.00    -0.454 OA
ATOM      9  C   UNL     1      -2.343  -2.127   0.000  1.00  0.00     0.468 C 
ATOM     10  O   UNL     1      -1.550  -0.854   0.000  1.00  0.00    -0.453 OA
ATOM     11  C   UNL     1      -0.094  -1.214   0.000  1.00  0.00     0.172 A 
ATOM     12  C   UNL     1       1.148  -0.373   0.000  1.00  0.00     0.040 A 
ATOM     13  C   UNL     1       1.041   1.123   0.000  1.00  0.00     0.122 C 
ATOM     14  C   UNL     1       2.283   1.964   0.000  1.00  0.00     0.033 C 
ATOM     15  C   UNL     1       2.176   3.460   0.000  1.00  0.00     0.012 C 
ENDROOT
BRANCH   3  16
ATOM     16  O   UNL     1       5.089  -0.843   0.000  1.00  0.00    -0.388 OA
ATOM     17  H   UNL     1       0.000   0.000   0.000  1.00  0.00     0.211 HD
ENDBRANCH   3  16
BRANCH  13  18
ATOM     18  O   UNL     1       0.429   2.492   0.000  1.00  0.00    -0.380 OA
ATOM     19  H   UNL     1       0.000   0.000   0.000  1.00  0.00     0.212 HD
ENDBRANCH  13  18
BRANCH  13  20
ATOM     20  C   UNL     1      -0.414   0.757   0.000  1.00  0.00    -0.008 A 
ATOM     21  C   UNL     1      -0.825  -0.685   0.000  1.00  0.00     0.011 A 
ATOM     22  C   UNL     1      -1.458   1.835   0.000  1.00  0.00     0.057 A 
ATOM     23  C   UNL     1      -2.280  -1.051   0.000  1.00  0.00     0.051 A 
ATOM     24  C   UNL     1      -2.912   1.469   0.000  1.00  0.00     0.166 A 
ATOM     25  C   UNL     1      -3.323   0.027   0.000  1.00  0.00     0.165 A 
ATOM     26  O   UNL     1      -4.157   2.306   0.000  1.00  0.00    -0.454 OA
ATOM     27  O   UNL     1      -4.822  -0.028   0.000  1.00  0.00    -0.454 OA
ATOM     28  C   UNL     1      -5.338   1.381   0.000  1.00  0.00     0.468 C 
ENDBRANCH  13  20
TORSDOF 3
