REMARK SMILES COc1cc(-c2cc(=O)c3c(O)c4c(c(OC)c3o2)OC(C)(C)C=C4)cc(OC)c1O
REMARK SMILES IDX 6 1 7 2 8 3 9 4 10 5 11 6 13 7 14 8 20 9 21 10 22 11 23 12
REMARK SMILES IDX 24 13 25 14 15 15 18 16 19 17 5 18 3 19 4 20 30 21 27 22
REMARK SMILES IDX 26 23 2 24 1 25 31 26 28 28 29 29 16 30 17 31 12 32
REMARK H PARENT 31 27 12 33
ROOT
ATOM      1  C   UNL     1      -1.383   0.619   0.000  1.00  0.00     0.139 A 
ATOM      2  C   UNL     1      -1.033   2.077   0.000  1.00  0.00     0.100 A 
ATOM      3  C   UNL     1       0.405   2.504   0.000  1.00  0.00     0.197 A 
ATOM      4  O   UNL     1       0.755   3.962   0.000  1.00  0.00    -0.289 OA
ATOM      5  C   UNL     1       1.493   1.471   0.000  1.00  0.00     0.111 A 
ATOM      6  C   UNL     1       2.932   1.898   0.000  1.00  0.00     0.141 A 
ATOM      7  C   UNL     1       4.020   0.866   0.000  1.00  0.00     0.063 A 
ATOM      8  C   UNL     1       3.670  -0.593   0.000  1.00  0.00     0.177 A 
ATOM      9  O   UNL     1       4.758  -1.625   0.000  1.00  0.00    -0.479 OA
ATOM     10  C   UNL     1       6.197  -1.199   0.000  1.00  0.00     0.122 C 
ATOM     11  C   UNL     1       7.694  -1.290   0.000  1.00  0.00     0.061 C 
ATOM     12  C   UNL     1       6.367  -2.689   0.000  1.00  0.00     0.061 C 
ATOM     13  C   UNL     1       6.546   0.260   0.000  1.00  0.00     0.021 C 
ATOM     14  C   UNL     1       5.458   1.292   0.000  1.00  0.00     0.016 C 
ATOM     15  C   UNL     1       2.232  -1.020   0.000  1.00  0.00     0.205 A 
ATOM     16  C   UNL     1       1.144   0.013   0.000  1.00  0.00     0.188 A 
ATOM     17  O   UNL     1      -0.294  -0.414   0.000  1.00  0.00    -0.452 OA
ENDROOT
BRANCH   1  18
ATOM     18  C   UNL     1      -2.821   0.192   0.000  1.00  0.00     0.025 A 
ATOM     19  C   UNL     1      -5.347   0.798   0.000  1.00  0.00     0.165 A 
ATOM     20  C   UNL     1      -3.909   1.224   0.000  1.00  0.00     0.062 A 
ATOM     21  C   UNL     1      -5.697  -0.661   0.000  1.00  0.00     0.200 A 
ATOM     22  C   UNL     1      -4.609  -1.693   0.000  1.00  0.00     0.165 A 
ATOM     23  C   UNL     1      -3.171  -1.267   0.000  1.00  0.00     0.062 A 
BRANCH  19  24
ATOM     24  O   UNL     1      -6.436   1.830   0.000  1.00  0.00    -0.493 OA
ATOM     25  C   UNL     1      -6.086   3.289   0.000  1.00  0.00     0.278 C 
ENDBRANCH  19  24
BRANCH  21  26
ATOM     26  O   UNL     1      -7.135  -1.087   0.000  1.00  0.00    -0.502 OA
ATOM     27  H   UNL     1       0.000   0.000   0.000  1.00  0.00     0.293 HD
ENDBRANCH  21  26
BRANCH  22  28
ATOM     28  O   UNL     1      -4.959  -3.152   0.000  1.00  0.00    -0.493 OA
ATOM     29  C   UNL     1      -6.397  -3.578   0.000  1.00  0.00     0.278 C 
ENDBRANCH  22  28
ENDBRANCH   1  18
BRANCH  15  30
ATOM     30  O   UNL     1       1.882  -2.478   0.000  1.00  0.00    -0.490 OA
ATOM     31  C   UNL     1       0.444  -2.905   0.000  1.00  0.00     0.278 C 
ENDBRANCH  15  30
BRANCH   6  32
ATOM     32  O   UNL     1       3.281   3.356   0.000  1.00  0.00    -0.506 OA
ATOM     33  H   UNL     1       0.000   0.000   0.000  1.00  0.00     0.293 HD
ENDBRANCH   6  32
TORSDOF 6
