REMARK SMILES COc1ccc(-c2oc3cc(OC)c(OC(C)=O)c(OC(C)=O)c3c(=O)c2OC)c(OC(C)=O)c1OC(C)=O
REMARK SMILES IDX 7 1 27 2 25 3 26 4 24 5 19 6 14 7 11 8 10 9 9 10 8 11 6 12
REMARK SMILES IDX 3 13 4 14 35 15 5 16 30 17 2 18 1 19 36 20 37 21 38 22 39 23
REMARK SMILES IDX 31 24 32 25 33 26 34 27 28 28 29 29 20 30 21 31 22 32 23 33
REMARK SMILES IDX 12 34 13 35 15 36 16 37 17 38 18 39
REMARK H PARENT
ROOT
ATOM      1  C   UNL     1      -0.775  -0.977   0.000  1.00  0.00     0.184 A 
ATOM      2  C   UNL     1      -0.007  -2.265   0.000  1.00  0.00     0.211 A 
ATOM      3  C   UNL     1       1.493  -2.245   0.000  1.00  0.00     0.239 A 
ATOM      4  O   UNL     1       2.261  -3.533   0.000  1.00  0.00    -0.285 OA
ATOM      5  C   UNL     1       2.225  -0.935   0.000  1.00  0.00     0.116 A 
ATOM      6  C   UNL     1       3.724  -0.914   0.000  1.00  0.00     0.192 A 
ATOM      7  C   UNL     1       4.457   0.395   0.000  1.00  0.00     0.216 A 
ATOM      8  C   UNL     1       3.689   1.683   0.000  1.00  0.00     0.169 A 
ATOM      9  C   UNL     1       2.189   1.663   0.000  1.00  0.00     0.098 A 
ATOM     10  C   UNL     1       1.457   0.353   0.000  1.00  0.00     0.146 A 
ATOM     11  O   UNL     1      -0.043   0.333   0.000  1.00  0.00    -0.451 OA
ENDROOT
BRANCH   1  12
ATOM     12  C   UNL     1      -2.275  -0.998   0.000  1.00  0.00     0.068 A 
ATOM     13  C   UNL     1      -5.275  -1.039   0.000  1.00  0.00     0.165 A 
ATOM     14  C   UNL     1      -4.507  -2.328   0.000  1.00  0.00     0.051 A 
ATOM     15  C   UNL     1      -4.543   0.270   0.000  1.00  0.00     0.215 A 
ATOM     16  C   UNL     1      -3.007  -2.307   0.000  1.00  0.00     0.020 A 
ATOM     17  C   UNL     1      -3.043   0.291   0.000  1.00  0.00     0.188 A 
BRANCH  13  18
ATOM     18  O   UNL     1      -6.774  -1.060   0.000  1.00  0.00    -0.493 OA
ATOM     19  C   UNL     1      -7.506  -2.369   0.000  1.00  0.00     0.278 C 
ENDBRANCH  13  18
BRANCH  15  20
ATOM     20  O   UNL     1      -5.311   1.559   0.000  1.00  0.00    -0.419 OA
BRANCH  20  21
ATOM     21  C   UNL     1      -6.810   1.538   0.000  1.00  0.00     0.308 C 
ATOM     22  C   UNL     1      -7.578   2.827   0.000  1.00  0.00     0.139 C 
ATOM     23  O   UNL     1      -7.542   0.229   0.000  1.00  0.00    -0.252 OA
ENDBRANCH  20  21
ENDBRANCH  15  20
BRANCH  17  24
ATOM     24  O   UNL     1      -2.311   1.600   0.000  1.00  0.00    -0.422 OA
BRANCH  24  25
ATOM     25  C   UNL     1      -3.079   2.889   0.000  1.00  0.00     0.308 C 
ATOM     26  C   UNL     1      -2.347   4.198   0.000  1.00  0.00     0.139 C 
ATOM     27  O   UNL     1      -4.579   2.868   0.000  1.00  0.00    -0.252 OA
ENDBRANCH  24  25
ENDBRANCH  17  24
ENDBRANCH   1  12
BRANCH   2  28
ATOM     28  O   UNL     1      -0.739  -3.575   0.000  1.00  0.00    -0.490 OA
ATOM     29  C   UNL     1      -2.239  -3.595   0.000  1.00  0.00     0.278 C 
ENDBRANCH   2  28
BRANCH   6  30
ATOM     30  O   UNL     1       4.492  -2.203   0.000  1.00  0.00    -0.422 OA
BRANCH  30  31
ATOM     31  C   UNL     1       5.992  -2.182   0.000  1.00  0.00     0.308 C 
ATOM     32  C   UNL     1       6.760  -3.471   0.000  1.00  0.00     0.139 C 
ATOM     33  O   UNL     1       6.724  -0.873   0.000  1.00  0.00    -0.252 OA
ENDBRANCH  30  31
ENDBRANCH   6  30
BRANCH   8  34
ATOM     34  O   UNL     1       4.421   2.993   0.000  1.00  0.00    -0.493 OA
ATOM     35  C   UNL     1       3.653   4.281   0.000  1.00  0.00     0.278 C 
ENDBRANCH   8  34
BRANCH   7  36
ATOM     36  O   UNL     1       5.956   0.415   0.000  1.00  0.00    -0.419 OA
BRANCH  36  37
ATOM     37  C   UNL     1       6.688   1.725   0.000  1.00  0.00     0.308 C 
ATOM     38  C   UNL     1       8.188   1.746   0.000  1.00  0.00     0.139 C 
ATOM     39  O   UNL     1       5.920   3.013   0.000  1.00  0.00    -0.252 OA
ENDBRANCH  36  37
ENDBRANCH   7  36
TORSDOF 12
