REMARK SMILES COc1cc2c(c(O)c1OC)c(=O)c1ccccc1n2C
REMARK SMILES IDX 3 1 4 2 5 3 6 4 7 5 9 6 12 7 13 8 14 9 15 10 16 11 17 12
REMARK SMILES IDX 18 13 19 14 20 15 21 16 2 17 1 18 10 19 11 20 8 21
REMARK H PARENT 8 22
ROOT
ATOM      1  C   UNL     1      -2.743   0.710   0.000  1.00  0.00     0.166 A 
ATOM      2  C   UNL     1      -1.465   1.496   0.000  1.00  0.00     0.077 A 
ATOM      3  C   UNL     1      -0.146   0.782   0.000  1.00  0.00     0.060 A 
ATOM      4  C   UNL     1      -0.104  -0.718   0.000  1.00  0.00     0.092 A 
ATOM      5  C   UNL     1      -1.381  -1.503   0.000  1.00  0.00     0.175 A 
ATOM      6  C   UNL     1      -2.701  -0.790   0.000  1.00  0.00     0.203 A 
ATOM      7  C   UNL     1       1.216  -1.431   0.000  1.00  0.00     0.201 A 
ATOM      8  O   UNL     1       1.257  -2.930   0.000  1.00  0.00    -0.288 OA
ATOM      9  C   UNL     1       2.493  -0.645   0.000  1.00  0.00     0.046 A 
ATOM     10  C   UNL     1       3.813  -1.359   0.000  1.00  0.00     0.014 A 
ATOM     11  C   UNL     1       5.090  -0.573   0.000  1.00  0.00     0.001 A 
ATOM     12  C   UNL     1       5.049   0.927   0.000  1.00  0.00     0.002 A 
ATOM     13  C   UNL     1       3.729   1.640   0.000  1.00  0.00     0.027 A 
ATOM     14  C   UNL     1       2.451   0.854   0.000  1.00  0.00     0.052 A 
ATOM     15  N   UNL     1       1.132   1.568   0.000  1.00  0.00    -0.343 N 
ATOM     16  C   UNL     1       1.090   3.067   0.000  1.00  0.00     0.150 C 
ENDROOT
BRANCH   1  17
ATOM     17  O   UNL     1      -4.062   1.423   0.000  1.00  0.00    -0.493 OA
ATOM     18  C   UNL     1      -4.104   2.922   0.000  1.00  0.00     0.278 C 
ENDBRANCH   1  17
BRANCH   6  19
ATOM     19  O   UNL     1      -3.978  -1.576   0.000  1.00  0.00    -0.490 OA
ATOM     20  C   UNL     1      -5.298  -0.862   0.000  1.00  0.00     0.278 C 
ENDBRANCH   6  19
BRANCH   5  21
ATOM     21  O   UNL     1      -1.340  -3.003   0.000  1.00  0.00    -0.504 OA
ATOM     22  H   UNL     1       0.000   0.000   0.000  1.00  0.00     0.293 HD
ENDBRANCH   5  21
TORSDOF 3
