REMARK SMILES C[C@]12CCC3C(CCC4C[C@H](O)[C@@]5(O)C[C@@]43CO5)C1CC(=O)C2
REMARK SMILES IDX 1 1 2 2 3 3 4 4 5 5 6 6 7 7 8 8 9 9 10 10 11 11 13 12 15 13
REMARK SMILES IDX 16 14 17 15 18 16 19 17 20 18 21 19 22 20 23 21 14 22 12 24
REMARK H PARENT 14 23 12 25
ROOT
ATOM      1  C   UNL     1      -3.617   2.234   0.000  1.00  0.00     0.012 C 
ATOM      2  C   UNL     1      -2.998   0.868   0.000  1.00  0.00    -0.022 C 
ATOM      3  C   UNL     1      -2.001   1.989   0.000  1.00  0.00     0.008 C 
ATOM      4  C   UNL     1      -0.532   1.687   0.000  1.00  0.00     0.005 C 
ATOM      5  C   UNL     1      -0.059   0.264   0.000  1.00  0.00     0.001 C 
ATOM      6  C   UNL     1      -1.056  -0.858   0.000  1.00  0.00    -0.003 C 
ATOM      7  C   UNL     1      -0.583  -2.281   0.000  1.00  0.00     0.004 C 
ATOM      8  C   UNL     1       0.887  -2.583   0.000  1.00  0.00     0.005 C 
ATOM      9  C   UNL     1       1.883  -1.462   0.000  1.00  0.00     0.001 C 
ATOM     10  C   UNL     1       3.377  -1.596   0.000  1.00  0.00     0.041 C 
ATOM     11  C   UNL     1       4.240  -0.369   0.000  1.00  0.00     0.174 C 
ATOM     12  C   UNL     1       3.609   0.992   0.000  1.00  0.00     0.192 C 
ATOM     13  C   UNL     1       2.879  -0.319   0.000  1.00  0.00     0.078 C 
ATOM     14  C   UNL     1       1.407  -0.029   0.000  1.00  0.00     0.005 C 
ATOM     15  C   UNL     1       1.227   1.460   0.000  1.00  0.00     0.171 C 
ATOM     16  O   UNL     1       2.588   2.091   0.000  1.00  0.00    -0.347 OA
ATOM     17  C   UNL     1      -2.525  -0.555   0.000  1.00  0.00     0.006 C 
ATOM     18  C   UNL     1      -3.732  -1.445   0.000  1.00  0.00     0.080 C 
ATOM     19  C   UNL     1      -4.952  -0.571   0.000  1.00  0.00     0.133 C 
ATOM     20  O   UNL     1      -6.375  -1.044   0.000  1.00  0.00    -0.300 OA
ATOM     21  C   UNL     1      -4.498   0.858   0.000  1.00  0.00     0.082 C 
ENDROOT
BRANCH  12  22
ATOM     22  O   UNL     1       5.098   1.172   0.000  1.00  0.00    -0.363 OA
ATOM     23  H   UNL     1       0.000   0.000   0.000  1.00  0.00     0.214 HD
ENDBRANCH  12  22
BRANCH  11  24
ATOM     24  O   UNL     1       5.734  -0.503   0.000  1.00  0.00    -0.388 OA
ATOM     25  H   UNL     1       0.000   0.000   0.000  1.00  0.00     0.211 HD
ENDBRANCH  11  24
TORSDOF 2
