REMARK SMILES COc1ccc(-c2coc3cc(O)c(OC)cc3c2=O)cc1O
REMARK SMILES IDX 7 1 8 2 9 3 10 4 11 5 12 6 14 7 17 8 18 9 19 10 20 11 6 12
REMARK SMILES IDX 3 13 4 14 22 15 5 16 21 17 2 18 1 19 23 20 15 22 16 23 13 24
REMARK H PARENT 23 21 13 25
ROOT
ATOM      1  C   UNL     1      -0.512  -0.685   0.000  1.00  0.00     0.065 A 
ATOM      2  C   UNL     1      -0.107  -2.130   0.000  1.00  0.00     0.208 A 
ATOM      3  O   UNL     1       1.346  -2.501   0.000  1.00  0.00    -0.463 OA
ATOM      4  C   UNL     1       2.395  -1.429   0.000  1.00  0.00     0.141 A 
ATOM      5  C   UNL     1       3.848  -1.800   0.000  1.00  0.00     0.098 A 
ATOM      6  C   UNL     1       4.896  -0.727   0.000  1.00  0.00     0.161 A 
ATOM      7  C   UNL     1       4.492   0.717   0.000  1.00  0.00     0.161 A 
ATOM      8  C   UNL     1       3.038   1.089   0.000  1.00  0.00     0.066 A 
ATOM      9  C   UNL     1       1.990   0.016   0.000  1.00  0.00     0.069 A 
ATOM     10  C   UNL     1       0.537   0.387   0.000  1.00  0.00     0.200 A 
ATOM     11  O   UNL     1       0.132   1.832   0.000  1.00  0.00    -0.288 OA
ENDROOT
BRANCH   1  12
ATOM     12  C   UNL     1      -1.965  -0.314   0.000  1.00  0.00    -0.007 A 
ATOM     13  C   UNL     1      -4.872   0.430   0.000  1.00  0.00     0.160 A 
ATOM     14  C   UNL     1      -3.823   1.502   0.000  1.00  0.00     0.051 A 
ATOM     15  C   UNL     1      -4.467  -1.015   0.000  1.00  0.00     0.158 A 
ATOM     16  C   UNL     1      -2.370   1.131   0.000  1.00  0.00     0.013 A 
ATOM     17  C   UNL     1      -3.014  -1.386   0.000  1.00  0.00     0.059 A 
BRANCH  13  18
ATOM     18  O   UNL     1      -6.325   0.801   0.000  1.00  0.00    -0.493 OA
ATOM     19  C   UNL     1      -6.730   2.245   0.000  1.00  0.00     0.278 C 
ENDBRANCH  13  18
BRANCH  15  20
ATOM     20  O   UNL     1      -5.515  -2.087   0.000  1.00  0.00    -0.504 OA
ATOM     21  H   UNL     1       0.000   0.000   0.000  1.00  0.00     0.293 HD
ENDBRANCH  15  20
ENDBRANCH   1  12
BRANCH   7  22
ATOM     22  O   UNL     1       5.540   1.790   0.000  1.00  0.00    -0.493 OA
ATOM     23  C   UNL     1       5.135   3.234   0.000  1.00  0.00     0.278 C 
ENDBRANCH   7  22
BRANCH   6  24
ATOM     24  O   UNL     1       6.350  -1.099   0.000  1.00  0.00    -0.504 OA
ATOM     25  H   UNL     1       0.000   0.000   0.000  1.00  0.00     0.293 HD
ENDBRANCH   6  24
TORSDOF 5
