REMARK SMILES O=C(OCc1ccccc1)c1ccccc1
REMARK SMILES IDX 3 1 2 2 1 3 11 4 12 5 16 6 13 7 15 8 14 9 4 10 5 11 6 12
REMARK SMILES IDX 10 13 7 14 9 15 8 16
REMARK H PARENT
ROOT
ATOM      1  O   UNL     1       0.075  -0.330   0.000  1.00  0.00    -0.457 OA
ENDROOT
BRANCH   1   2
ATOM      2  C   UNL     1      -1.238  -1.055   0.000  1.00  0.00     0.338 C 
ATOM      3  O   UNL     1      -1.267  -2.554   0.000  1.00  0.00    -0.246 OA
BRANCH   2   4
ATOM      4  C   UNL     1      -2.523  -0.280   0.000  1.00  0.00     0.060 A 
ATOM      5  C   UNL     1      -2.494   1.220   0.000  1.00  0.00     0.015 A 
ATOM      6  C   UNL     1      -3.836  -1.005   0.000  1.00  0.00     0.015 A 
ATOM      7  C   UNL     1      -3.779   1.994   0.000  1.00  0.00     0.001 A 
ATOM      8  C   UNL     1      -5.120  -0.231   0.000  1.00  0.00     0.001 A 
ATOM      9  C   UNL     1      -5.092   1.269   0.000  1.00  0.00     0.000 A 
ENDBRANCH   2   4
ENDBRANCH   1   2
BRANCH   1  10
ATOM     10  C   UNL     1       1.359  -1.104   0.000  1.00  0.00     0.269 C 
BRANCH  10  11
ATOM     11  C   UNL     1       2.672  -0.379   0.000  1.00  0.00    -0.011 A 
ATOM     12  C   UNL     1       3.957  -1.154   0.000  1.00  0.00     0.007 A 
ATOM     13  C   UNL     1       2.701   1.121   0.000  1.00  0.00     0.007 A 
ATOM     14  C   UNL     1       5.270  -0.428   0.000  1.00  0.00     0.000 A 
ATOM     15  C   UNL     1       4.014   1.846   0.000  1.00  0.00     0.000 A 
ATOM     16  C   UNL     1       5.299   1.071   0.000  1.00  0.00     0.000 A 
ENDBRANCH  10  11
ENDBRANCH   1  10
TORSDOF 4
