REMARK SMILES COc1cc([C@H]2c3cc(OC)c(OC)cc3C[C@@H](CO)[C@@H]2CO)ccc1O
REMARK SMILES IDX 6 1 7 2 8 3 9 4 12 5 15 6 16 7 17 8 18 9 21 10 5 11 3 12
REMARK SMILES IDX 4 13 26 14 25 15 24 16 2 17 1 18 27 19 22 21 23 22 19 24
REMARK SMILES IDX 20 25 10 27 11 28 13 29 14 30
REMARK H PARENT 27 20 23 23 20 26
ROOT
ATOM      1  C   UNL     1      -0.351   0.553   0.000  1.00  0.00     0.055 C 
ATOM      2  C   UNL     1       1.125   0.285   0.000  1.00  0.00    -0.033 A 
ATOM      3  C   UNL     1       1.631  -1.127   0.000  1.00  0.00     0.055 A 
ATOM      4  C   UNL     1       3.107  -1.395   0.000  1.00  0.00     0.161 A 
ATOM      5  C   UNL     1       4.076  -0.250   0.000  1.00  0.00     0.161 A 
ATOM      6  C   UNL     1       3.570   1.162   0.000  1.00  0.00     0.054 A 
ATOM      7  C   UNL     1       2.094   1.429   0.000  1.00  0.00    -0.040 A 
ATOM      8  C   UNL     1       1.588   2.841   0.000  1.00  0.00     0.042 C 
ATOM      9  C   UNL     1       0.112   3.109   0.000  1.00  0.00     0.025 C 
ATOM     10  C   UNL     1      -0.858   1.965   0.000  1.00  0.00     0.032 C 
ENDROOT
BRANCH   1  11
ATOM     11  C   UNL     1      -1.321  -0.592   0.000  1.00  0.00    -0.036 A 
ATOM     12  C   UNL     1      -3.767  -1.468   0.000  1.00  0.00     0.160 A 
ATOM     13  C   UNL     1      -2.797  -0.324   0.000  1.00  0.00     0.054 A 
ATOM     14  C   UNL     1      -3.261  -2.881   0.000  1.00  0.00     0.157 A 
ATOM     15  C   UNL     1      -1.785  -3.148   0.000  1.00  0.00     0.050 A 
ATOM     16  C   UNL     1      -0.815  -2.004   0.000  1.00  0.00     0.008 A 
BRANCH  12  17
ATOM     17  O   UNL     1      -5.243  -1.201   0.000  1.00  0.00    -0.493 OA
ATOM     18  C   UNL     1      -5.749   0.211   0.000  1.00  0.00     0.278 C 
ENDBRANCH  12  17
BRANCH  14  19
ATOM     19  O   UNL     1      -4.230  -4.025   0.000  1.00  0.00    -0.504 OA
ATOM     20  H   UNL     1       0.000   0.000   0.000  1.00  0.00     0.293 HD
ENDBRANCH  14  19
ENDBRANCH   1  11
BRANCH  10  21
ATOM     21  C   UNL     1      -2.334   2.232   0.000  1.00  0.00     0.161 C 
BRANCH  21  22
ATOM     22  O   UNL     1      -2.840   3.644   0.000  1.00  0.00    -0.396 OA
ATOM     23  H   UNL     1       0.000   0.000   0.000  1.00  0.00     0.210 HD
ENDBRANCH  21  22
ENDBRANCH  10  21
BRANCH   9  24
ATOM     24  C   UNL     1      -0.394   4.521   0.000  1.00  0.00     0.160 C 
BRANCH  24  25
ATOM     25  O   UNL     1       0.575   5.665   0.000  1.00  0.00    -0.396 OA
ATOM     26  H   UNL     1       0.000   0.000   0.000  1.00  0.00     0.210 HD
ENDBRANCH  24  25
ENDBRANCH   9  24
BRANCH   4  27
ATOM     27  O   UNL     1       3.613  -2.807   0.000  1.00  0.00    -0.493 OA
ATOM     28  C   UNL     1       2.643  -3.951   0.000  1.00  0.00     0.278 C 
ENDBRANCH   4  27
BRANCH   5  29
ATOM     29  O   UNL     1       5.552  -0.518   0.000  1.00  0.00    -0.493 OA
ATOM     30  C   UNL     1       6.059  -1.930   0.000  1.00  0.00     0.278 C 
ENDBRANCH   5  29
TORSDOF 9
