REMARK SMILES Cn1c2occc2c(=O)c2ccc3c(c21)OC(C)(C)C=C3
REMARK SMILES IDX 1 1 2 2 3 3 7 4 6 5 5 6 4 7 8 8 9 9 10 10 11 11 12 12 13 13
REMARK SMILES IDX 21 14 20 15 17 16 18 17 19 18 16 19 14 20 15 21
REMARK H PARENT
ROOT
ATOM      1  C   UNL     1      -0.090   2.417   0.000  1.00  0.00     0.153 C 
ATOM      2  N   UNL     1      -0.888   1.147   0.000  1.00  0.00    -0.311 N 
ATOM      3  C   UNL     1      -2.387   1.204   0.000  1.00  0.00     0.210 A 
ATOM      4  C   UNL     1      -3.186  -0.066   0.000  1.00  0.00     0.086 A 
ATOM      5  C   UNL     1      -4.640   0.301   0.000  1.00  0.00     0.056 A 
ATOM      6  C   UNL     1      -4.741   1.798   0.000  1.00  0.00     0.198 A 
ATOM      7  O   UNL     1      -3.348   2.355   0.000  1.00  0.00    -0.448 OA
ATOM      8  C   UNL     1      -2.486  -1.393   0.000  1.00  0.00     0.200 A 
ATOM      9  O   UNL     1      -3.284  -2.663   0.000  1.00  0.00    -0.288 OA
ATOM     10  C   UNL     1      -0.987  -1.450   0.000  1.00  0.00     0.050 A 
ATOM     11  C   UNL     1      -0.286  -2.776   0.000  1.00  0.00     0.015 A 
ATOM     12  C   UNL     1       1.213  -2.833   0.000  1.00  0.00     0.013 A 
ATOM     13  C   UNL     1       2.011  -1.563   0.000  1.00  0.00     0.019 A 
ATOM     14  C   UNL     1       3.510  -1.620   0.000  1.00  0.00     0.012 C 
ATOM     15  C   UNL     1       4.309  -0.350   0.000  1.00  0.00     0.021 C 
ATOM     16  C   UNL     1       3.608   0.977   0.000  1.00  0.00     0.122 C 
ATOM     17  C   UNL     1       3.404   2.462   0.000  1.00  0.00     0.061 C 
ATOM     18  C   UNL     1       5.036   1.436   0.000  1.00  0.00     0.061 C 
ATOM     19  O   UNL     1       2.109   1.033   0.000  1.00  0.00    -0.481 OA
ATOM     20  C   UNL     1       1.311  -0.236   0.000  1.00  0.00     0.152 A 
ATOM     21  C   UNL     1      -0.188  -0.180   0.000  1.00  0.00     0.098 A 
ENDROOT
TORSDOF 0
