REMARK SMILES COc1cc(O)cc(CCCc2ccc(OC)c(O)c2)c1
REMARK SMILES IDX 10 1 9 2 8 3 3 4 4 5 21 6 5 7 7 8 2 9 1 10 6 11 11 13 12 14
REMARK SMILES IDX 13 15 20 16 14 17 18 18 15 19 19 20 16 22 17 23
REMARK H PARENT 6 12 19 21
ROOT
ATOM      1  C   UNL     1      -0.178   0.966   0.000  1.00  0.00     0.010 C 
ENDROOT
BRANCH   1   2
ATOM      2  C   UNL     1      -1.471   1.726   0.000  1.00  0.00     0.036 C 
BRANCH   2   3
ATOM      3  C   UNL     1      -2.776   0.986   0.000  1.00  0.00    -0.041 A 
ATOM      4  C   UNL     1      -4.093  -1.254   0.000  1.00  0.00     0.122 A 
ATOM      5  C   UNL     1      -5.386  -0.493   0.000  1.00  0.00     0.092 A 
ATOM      6  C   UNL     1      -2.788  -0.514   0.000  1.00  0.00     0.050 A 
ATOM      7  C   UNL     1      -5.374   1.007   0.000  1.00  0.00     0.119 A 
ATOM      8  C   UNL     1      -4.069   1.746   0.000  1.00  0.00     0.050 A 
BRANCH   4   9
ATOM      9  O   UNL     1      -4.104  -2.753   0.000  1.00  0.00    -0.497 OA
ATOM     10  C   UNL     1      -5.409  -3.493   0.000  1.00  0.00     0.278 C 
ENDBRANCH   4   9
BRANCH   7  11
ATOM     11  O   UNL     1      -6.667   1.767   0.000  1.00  0.00    -0.508 OA
ATOM     12  H   UNL     1       0.000   0.000   0.000  1.00  0.00     0.293 HD
ENDBRANCH   7  11
ENDBRANCH   2   3
ENDBRANCH   1   2
BRANCH   1  13
ATOM     13  C   UNL     1       1.127   1.706   0.000  1.00  0.00     0.036 C 
BRANCH  13  14
ATOM     14  C   UNL     1       2.420   0.945   0.000  1.00  0.00    -0.044 A 
ATOM     15  C   UNL     1       2.408  -0.555   0.000  1.00  0.00     0.008 A 
ATOM     16  C   UNL     1       3.725   1.685   0.000  1.00  0.00     0.054 A 
ATOM     17  C   UNL     1       3.701  -1.315   0.000  1.00  0.00     0.051 A 
ATOM     18  C   UNL     1       5.018   0.925   0.000  1.00  0.00     0.157 A 
ATOM     19  C   UNL     1       5.006  -0.575   0.000  1.00  0.00     0.160 A 
BRANCH  18  20
ATOM     20  O   UNL     1       6.323   1.665   0.000  1.00  0.00    -0.504 OA
ATOM     21  H   UNL     1       0.000   0.000   0.000  1.00  0.00     0.293 HD
ENDBRANCH  18  20
BRANCH  19  22
ATOM     22  O   UNL     1       6.299  -1.335   0.000  1.00  0.00    -0.493 OA
ATOM     23  C   UNL     1       6.287  -2.835   0.000  1.00  0.00     0.278 C 
ENDBRANCH  19  22
ENDBRANCH  13  14
ENDBRANCH   1  13
TORSDOF 8
