REMARK SMILES C=CC[C@H]1[C@H]2C[C@H]3CN1[C@@H]1CCCC3N1[C@H]2C1=CN(C(C)=O)CCC1
REMARK SMILES IDX 4 1 5 2 6 3 7 4 8 5 9 6 10 7 11 8 12 9 13 10 14 11 15 12
REMARK SMILES IDX 16 13 3 14 2 15 1 16 17 17 18 18 25 19 19 20 24 21 23 22
REMARK SMILES IDX 20 23 21 24 22 25
REMARK H PARENT
ROOT
ATOM      1  C   UNL     1      -3.225   0.226   0.000  1.00  0.00     0.067 C 
ATOM      2  C   UNL     1      -1.933   0.989   0.000  1.00  0.00     0.028 C 
ATOM      3  C   UNL     1       0.178   0.561   0.000  1.00  0.00     0.013 C 
ATOM      4  C   UNL     1       1.171  -0.563   0.000  1.00  0.00     0.021 C 
ATOM      5  C   UNL     1      -0.597  -1.162   0.000  1.00  0.00     0.091 C 
ATOM      6  N   UNL     1      -3.210  -1.274   0.000  1.00  0.00    -0.284 NA
ATOM      7  C   UNL     1      -1.903  -2.011   0.000  1.00  0.00     0.127 C 
ATOM      8  C   UNL     1      -1.888  -3.511   0.000  1.00  0.00     0.035 C 
ATOM      9  C   UNL     1      -0.582  -4.248   0.000  1.00  0.00     0.005 C 
ATOM     10  C   UNL     1       0.710  -3.485   0.000  1.00  0.00     0.020 C 
ATOM     11  C   UNL     1       0.695  -1.985   0.000  1.00  0.00     0.063 C 
ATOM     12  N   UNL     1      -0.612  -1.248   0.000  1.00  0.00    -0.277 NA
ATOM     13  C   UNL     1      -0.627   0.252   0.000  1.00  0.00     0.091 C 
ENDROOT
BRANCH   1  14
ATOM     14  C   UNL     1      -4.531   0.963   0.000  1.00  0.00     0.046 C 
BRANCH  14  15
ATOM     15  C   UNL     1      -4.546   2.462   0.000  1.00  0.00    -0.033 C 
ATOM     16  C   UNL     1      -5.853   3.200   0.000  1.00  0.00     0.004 C 
ENDBRANCH  14  15
ENDBRANCH   1  14
BRANCH  13  17
ATOM     17  C   UNL     1       0.665   1.014   0.000  1.00  0.00    -0.036 C 
ATOM     18  C   UNL     1       1.971   0.278   0.000  1.00  0.00     0.089 C 
ATOM     19  C   UNL     1       0.650   2.514   0.000  1.00  0.00     0.036 C 
ATOM     20  N   UNL     1       3.263   1.040   0.000  1.00  0.00    -0.319 N 
ATOM     21  C   UNL     1       1.941   3.277   0.000  1.00  0.00     0.026 C 
ATOM     22  C   UNL     1       3.248   2.540   0.000  1.00  0.00     0.125 C 
BRANCH  20  23
ATOM     23  C   UNL     1       4.569   0.303   0.000  1.00  0.00     0.223 C 
ATOM     24  C   UNL     1       4.584  -1.196   0.000  1.00  0.00     0.115 C 
ATOM     25  O   UNL     1       5.861   1.066   0.000  1.00  0.00    -0.275 OA
ENDBRANCH  20  23
ENDBRANCH  13  17
TORSDOF 4
