REMARK SMILES C=CCSSC
REMARK SMILES IDX 3 1 2 2 1 3 4 4 5 5 6 6
REMARK H PARENT
ROOT
ATOM      1  C   UNL     1      -0.668  -0.342   0.000  1.00  0.00     0.108 C 
ENDROOT
BRANCH   1   2
ATOM      2  C   UNL     1      -1.927   0.473   0.000  1.00  0.00    -0.023 C 
ATOM      3  C   UNL     1      -3.262  -0.210   0.000  1.00  0.00     0.005 C 
ENDBRANCH   1   2
BRANCH   1   4
ATOM      4  S   UNL     1       0.668   0.342   0.000  1.00  0.00    -0.090 SA
BRANCH   4   5
ATOM      5  S   UNL     1       1.927  -0.473   0.000  1.00  0.00    -0.097 SA
ATOM      6  C   UNL     1       3.262   0.210   0.000  1.00  0.00     0.098 C 
ENDBRANCH   4   5
ENDBRANCH   1   4
TORSDOF 3
