REMARK SMILES C[C@H]1[C@H](c2ccc3c(c2)OCO3)c2c(ccc3c2OCO3)C[C@@H]1C
REMARK SMILES IDX 1 1 2 2 3 3 13 4 14 5 15 6 16 7 17 8 18 9 19 10 20 11 21 12
REMARK SMILES IDX 22 13 23 14 24 15 4 16 5 17 9 18 6 19 8 20 7 21 10 22 12 23
REMARK SMILES IDX 11 24
REMARK H PARENT
ROOT
ATOM      1  C   UNL     1      -0.557  -3.308   0.000  1.00  0.00     0.009 C 
ATOM      2  C   UNL     1       0.657  -2.428   0.000  1.00  0.00     0.001 C 
ATOM      3  C   UNL     1       0.503  -0.936   0.000  1.00  0.00     0.057 C 
ATOM      4  C   UNL     1       1.718  -0.057   0.000  1.00  0.00     0.009 A 
ATOM      5  C   UNL     1       3.087  -0.669   0.000  1.00  0.00    -0.040 A 
ATOM      6  C   UNL     1       4.302   0.211   0.000  1.00  0.00     0.008 A 
ATOM      7  C   UNL     1       4.147   1.703   0.000  1.00  0.00     0.051 A 
ATOM      8  C   UNL     1       2.778   2.315   0.000  1.00  0.00     0.166 A 
ATOM      9  C   UNL     1       1.563   1.435   0.000  1.00  0.00     0.169 A 
ATOM     10  O   UNL     1       0.351   2.319   0.000  1.00  0.00    -0.453 OA
ATOM     11  C   UNL     1       0.817   3.745   0.000  1.00  0.00     0.468 C 
ATOM     12  O   UNL     1       2.317   3.743   0.000  1.00  0.00    -0.454 OA
ATOM     13  C   UNL     1       3.242  -2.161   0.000  1.00  0.00     0.039 C 
ATOM     14  C   UNL     1       2.027  -3.041   0.000  1.00  0.00    -0.006 C 
ATOM     15  C   UNL     1       2.181  -4.533   0.000  1.00  0.00     0.008 C 
ENDROOT
BRANCH   3  16
ATOM     16  C   UNL     1      -0.867  -0.324   0.000  1.00  0.00    -0.036 A 
ATOM     17  C   UNL     1      -1.021   1.168   0.000  1.00  0.00     0.008 A 
ATOM     18  C   UNL     1      -2.081  -1.204   0.000  1.00  0.00     0.055 A 
ATOM     19  C   UNL     1      -2.390   1.780   0.000  1.00  0.00     0.051 A 
ATOM     20  C   UNL     1      -3.451  -0.592   0.000  1.00  0.00     0.166 A 
ATOM     21  C   UNL     1      -3.605   0.900   0.000  1.00  0.00     0.165 A 
ATOM     22  O   UNL     1      -4.822  -1.200   0.000  1.00  0.00    -0.454 OA
ATOM     23  O   UNL     1      -5.072   1.214   0.000  1.00  0.00    -0.454 OA
ATOM     24  C   UNL     1      -5.824  -0.083   0.000  1.00  0.00     0.468 C 
ENDBRANCH   3  16
TORSDOF 1
