REMARK SMILES C=CC[C@]12C[C@@H](OC)C(=O)C(OC)=C1O[C@@H](OCc1ccc(OC)c(OC)c1)[C@H]2C
REMARK SMILES IDX 17 1 16 2 4 3 5 4 14 5 29 6 6 7 11 8 15 9 9 10 30 11 10 12
REMARK SMILES IDX 3 13 2 14 1 15 7 16 8 17 12 18 13 19 18 20 19 21 20 22 28 23
REMARK SMILES IDX 21 24 25 25 22 26 26 27 27 28 23 29 24 30
REMARK H PARENT
ROOT
ATOM      1  O   UNL     1      -1.245   0.691   0.000  1.00  0.00    -0.338 OA
ENDROOT
BRANCH   1   2
ATOM      2  C   UNL     1       0.225   0.392   0.000  1.00  0.00     0.310 C 
ATOM      3  C   UNL     1       2.637   0.666   0.000  1.00  0.00     0.047 C 
ATOM      4  C   UNL     1       4.059   1.142   0.000  1.00  0.00     0.056 C 
ATOM      5  C   UNL     1       2.337  -0.804   0.000  1.00  0.00     0.152 C 
ATOM      6  C   UNL     1       1.331   1.405   0.000  1.00  0.00     0.069 C 
ATOM      7  C   UNL     1       5.182   0.148   0.000  1.00  0.00     0.194 C 
ATOM      8  C   UNL     1       3.461  -1.798   0.000  1.00  0.00     0.203 C 
ATOM      9  O   UNL     1       0.847  -0.973   0.000  1.00  0.00    -0.464 OA
ATOM     10  C   UNL     1       4.883  -1.322   0.000  1.00  0.00     0.229 C 
ATOM     11  C   UNL     1       1.162   2.895   0.000  1.00  0.00     0.015 C 
ATOM     12  O   UNL     1       6.006  -2.316   0.000  1.00  0.00    -0.288 OA
BRANCH   3  13
ATOM     13  C   UNL     1       2.780   2.159   0.000  1.00  0.00     0.042 C 
BRANCH  13  14
ATOM     14  C   UNL     1       4.146   2.781   0.000  1.00  0.00    -0.034 C 
ATOM     15  C   UNL     1       4.290   4.274   0.000  1.00  0.00     0.004 C 
ENDBRANCH  13  14
ENDBRANCH   3  13
BRANCH   7  16
ATOM     16  O   UNL     1       6.605   0.624   0.000  1.00  0.00    -0.373 OA
ATOM     17  C   UNL     1       7.728  -0.370   0.000  1.00  0.00     0.196 C 
ENDBRANCH   7  16
BRANCH   8  18
ATOM     18  O   UNL     1       3.161  -3.268   0.000  1.00  0.00    -0.490 OA
ATOM     19  C   UNL     1       4.285  -4.262   0.000  1.00  0.00     0.278 C 
ENDBRANCH   8  18
ENDBRANCH   1   2
BRANCH   1  20
ATOM     20  C   UNL     1      -2.239  -0.432   0.000  1.00  0.00     0.200 C 
BRANCH  20  21
ATOM     21  C   UNL     1      -3.709  -0.133   0.000  1.00  0.00    -0.018 A 
ATOM     22  C   UNL     1      -4.184   1.290   0.000  1.00  0.00     0.010 A 
ATOM     23  C   UNL     1      -4.703  -1.256   0.000  1.00  0.00     0.056 A 
ATOM     24  C   UNL     1      -5.654   1.589   0.000  1.00  0.00     0.051 A 
ATOM     25  C   UNL     1      -6.173  -0.957   0.000  1.00  0.00     0.161 A 
ATOM     26  C   UNL     1      -6.648   0.466   0.000  1.00  0.00     0.160 A 
BRANCH  25  27
ATOM     27  O   UNL     1      -7.167  -2.080   0.000  1.00  0.00    -0.493 OA
ATOM     28  C   UNL     1      -6.691  -3.503   0.000  1.00  0.00     0.278 C 
ENDBRANCH  25  27
BRANCH  26  29
ATOM     29  O   UNL     1      -8.118   0.765   0.000  1.00  0.00    -0.493 OA
ATOM     30  C   UNL     1      -8.594   2.187   0.000  1.00  0.00     0.278 C 
ENDBRANCH  26  29
ENDBRANCH  20  21
ENDBRANCH   1  20
TORSDOF 9
