REMARK SMILES CC(C)(O)[C@H](O)COc1c2ccoc2cc2oc(=O)ccc12
REMARK SMILES IDX 5 1 2 2 1 3 3 4 4 5 6 7 7 9 8 10 9 11 10 12 22 13 11 14
REMARK SMILES IDX 14 15 16 16 21 17 12 18 13 19 15 20 17 21 20 22 18 23 19 24
REMARK H PARENT 4 6 6 8
ROOT
ATOM      1  C   UNL     1      -3.312  -1.247   0.000  1.00  0.00     0.183 C 
ENDROOT
BRANCH   1   2
ATOM      2  C   UNL     1      -4.704  -0.688   0.000  1.00  0.00     0.088 C 
ATOM      3  C   UNL     1      -4.145   0.704   0.000  1.00  0.00     0.045 C 
ATOM      4  C   UNL     1      -5.263  -2.080   0.000  1.00  0.00     0.045 C 
BRANCH   2   5
ATOM      5  O   UNL     1      -6.096  -0.129   0.000  1.00  0.00    -0.388 OA
ATOM      6  H   UNL     1       0.000   0.000   0.000  1.00  0.00     0.211 HD
ENDBRANCH   2   5
ENDBRANCH   1   2
BRANCH   1   7
ATOM      7  O   UNL     1      -3.100  -2.732   0.000  1.00  0.00    -0.387 OA
ATOM      8  H   UNL     1       0.000   0.000   0.000  1.00  0.00     0.211 HD
ENDBRANCH   1   7
BRANCH   1   9
ATOM      9  C   UNL     1      -2.132  -0.321   0.000  1.00  0.00     0.264 C 
BRANCH   9  10
ATOM     10  O   UNL     1      -0.740  -0.879   0.000  1.00  0.00    -0.489 OA
BRANCH  10  11
ATOM     11  C   UNL     1       0.440   0.047   0.000  1.00  0.00     0.141 A 
ATOM     12  C   UNL     1       0.228   1.532   0.000  1.00  0.00     0.063 A 
ATOM     13  C   UNL     1       1.832  -0.512   0.000  1.00  0.00     0.061 A 
ATOM     14  C   UNL     1      -1.018   2.368   0.000  1.00  0.00     0.054 A 
ATOM     15  C   UNL     1       1.408   2.458   0.000  1.00  0.00     0.141 A 
ATOM     16  C   UNL     1       3.012   0.414   0.000  1.00  0.00     0.145 A 
ATOM     17  C   UNL     1       2.044  -1.997   0.000  1.00  0.00     0.023 A 
ATOM     18  C   UNL     1      -0.608   3.811   0.000  1.00  0.00     0.196 A 
ATOM     19  O   UNL     1       0.891   3.866   0.000  1.00  0.00    -0.464 OA
ATOM     20  C   UNL     1       2.800   1.899   0.000  1.00  0.00     0.095 A 
ATOM     21  O   UNL     1       4.404  -0.144   0.000  1.00  0.00    -0.422 OA
ATOM     22  C   UNL     1       3.436  -2.555   0.000  1.00  0.00     0.095 A 
ATOM     23  C   UNL     1       4.616  -1.629   0.000  1.00  0.00     0.336 A 
ATOM     24  O   UNL     1       6.008  -2.188   0.000  1.00  0.00    -0.246 OA
ENDBRANCH  10  11
ENDBRANCH   9  10
ENDBRANCH   1   9
TORSDOF 6
