REMARK SMILES CC(C)=CCC[C@](C)(O)[C@@H]1Cc2cc(C(=O)O)cc(CC=C(C)C)c2O1
REMARK SMILES IDX 7 1 8 2 6 3 5 4 4 5 2 6 1 7 3 8 9 9 10 11 11 12 26 13 12 14
REMARK SMILES IDX 25 15 13 16 19 17 14 18 18 19 20 20 21 21 22 22 23 23 24 24
REMARK SMILES IDX 15 25 16 26 17 27
REMARK H PARENT 9 10 17 28
ROOT
ATOM      1  C   UNL     1      -2.489  -2.292   0.000  1.00  0.00     0.099 C 
ATOM      2  C   UNL     1      -2.067  -3.732   0.000  1.00  0.00     0.046 C 
ENDROOT
BRANCH   1   3
ATOM      3  C   UNL     1      -2.911  -0.853   0.000  1.00  0.00     0.043 C 
BRANCH   3   4
ATOM      4  C   UNL     1      -4.368  -0.498   0.000  1.00  0.00     0.030 C 
BRANCH   4   5
ATOM      5  C   UNL     1      -4.790   0.941   0.000  1.00  0.00    -0.028 C 
BRANCH   5   6
ATOM      6  C   UNL     1      -6.248   1.296   0.000  1.00  0.00    -0.080 C 
ATOM      7  C   UNL     1      -6.669   2.735   0.000  1.00  0.00     0.039 C 
ATOM      8  C   UNL     1      -7.283   0.211   0.000  1.00  0.00     0.039 C 
ENDBRANCH   5   6
ENDBRANCH   4   5
ENDBRANCH   3   4
ENDBRANCH   1   3
BRANCH   1   9
ATOM      9  O   UNL     1      -3.929  -2.714   0.000  1.00  0.00    -0.386 OA
ATOM     10  H   UNL     1       0.000   0.000   0.000  1.00  0.00     0.211 HD
ENDBRANCH   1   9
BRANCH   1  11
ATOM     11  C   UNL     1      -1.050  -1.871   0.000  1.00  0.00     0.209 C 
ATOM     12  C   UNL     1       0.138  -2.787   0.000  1.00  0.00     0.087 C 
ATOM     13  O   UNL     1      -0.545  -0.458   0.000  1.00  0.00    -0.486 OA
ATOM     14  C   UNL     1       1.376  -1.941   0.000  1.00  0.00    -0.001 A 
ATOM     15  C   UNL     1       0.955  -0.502   0.000  1.00  0.00     0.126 A 
ATOM     16  C   UNL     1       2.834  -2.296   0.000  1.00  0.00     0.023 A 
ATOM     17  C   UNL     1       1.990   0.583   0.000  1.00  0.00    -0.001 A 
ATOM     18  C   UNL     1       3.870  -1.211   0.000  1.00  0.00     0.060 A 
ATOM     19  C   UNL     1       3.448   0.229   0.000  1.00  0.00     0.023 A 
BRANCH  17  20
ATOM     20  C   UNL     1       1.569   2.023   0.000  1.00  0.00     0.066 C 
BRANCH  20  21
ATOM     21  C   UNL     1       2.604   3.108   0.000  1.00  0.00    -0.023 C 
BRANCH  21  22
ATOM     22  C   UNL     1       2.183   4.547   0.000  1.00  0.00    -0.080 C 
ATOM     23  C   UNL     1       3.219   5.632   0.000  1.00  0.00     0.039 C 
ATOM     24  C   UNL     1       0.725   4.902   0.000  1.00  0.00     0.039 C 
ENDBRANCH  21  22
ENDBRANCH  20  21
ENDBRANCH  17  20
BRANCH  18  25
ATOM     25  C   UNL     1       5.327  -1.565   0.000  1.00  0.00     0.335 C 
ATOM     26  O   UNL     1       6.363  -0.480   0.000  1.00  0.00    -0.246 OA
BRANCH  25  27
ATOM     27  O   UNL     1       5.749  -3.005   0.000  1.00  0.00    -0.478 OA
ATOM     28  H   UNL     1       0.000   0.000   0.000  1.00  0.00     0.297 HD
ENDBRANCH  25  27
ENDBRANCH  18  25
ENDBRANCH   1  11
TORSDOF 11
