REMARK SMILES CC1(C)C=Cc2cc(C(=O)O)ccc2O1
REMARK SMILES IDX 9 1 10 2 8 3 2 4 4 5 15 6 5 7 14 8 6 9 13 10 7 11 12 12 1 13
REMARK SMILES IDX 3 14 11 15
REMARK H PARENT 11 16
ROOT
ATOM      1  C   UNL     1       3.745   0.244   0.000  1.00  0.00     0.335 C 
ATOM      2  O   UNL     1       4.183   1.678   0.000  1.00  0.00    -0.246 OA
ENDROOT
BRANCH   1   3
ATOM      3  C   UNL     1       2.283  -0.094   0.000  1.00  0.00     0.060 A 
ATOM      4  C   UNL     1      -3.124  -0.011   0.000  1.00  0.00     0.122 C 
ATOM      5  C   UNL     1      -2.686   1.423   0.000  1.00  0.00     0.021 C 
ATOM      6  O   UNL     1      -2.101  -1.108   0.000  1.00  0.00    -0.483 OA
ATOM      7  C   UNL     1      -1.225   1.761   0.000  1.00  0.00     0.012 C 
ATOM      8  C   UNL     1      -0.640  -0.770   0.000  1.00  0.00     0.127 A 
ATOM      9  C   UNL     1      -0.202   0.664   0.000  1.00  0.00     0.017 A 
ATOM     10  C   UNL     1       0.384  -1.867   0.000  1.00  0.00     0.048 A 
ATOM     11  C   UNL     1       1.260   1.002   0.000  1.00  0.00     0.027 A 
ATOM     12  C   UNL     1       1.845  -1.529   0.000  1.00  0.00     0.019 A 
ATOM     13  C   UNL     1      -4.027  -1.210   0.000  1.00  0.00     0.061 C 
ATOM     14  C   UNL     1      -4.461   0.669   0.000  1.00  0.00     0.061 C 
ENDBRANCH   1   3
BRANCH   1  15
ATOM     15  O   UNL     1       4.768  -0.853   0.000  1.00  0.00    -0.478 OA
ATOM     16  H   UNL     1       0.000   0.000   0.000  1.00  0.00     0.297 HD
ENDBRANCH   1  15
TORSDOF 2
