REMARK SMILES CC1(C)C=Cc2c(ccc(C(=O)C=Cc3ccc(O)cc3)c2O)O1
REMARK SMILES IDX 13 1 11 2 12 3 10 4 2 5 4 6 24 7 5 8 7 9 6 10 8 11 22 12
REMARK SMILES IDX 9 13 1 14 3 15 23 16 14 18 15 19 16 20 21 21 17 22 20 23
REMARK SMILES IDX 18 24 19 25
REMARK H PARENT 23 17 19 26
ROOT
ATOM      1  C   UNL     1       1.877   0.487   0.000  1.00  0.00     0.053 C 
ENDROOT
BRANCH   1   2
ATOM      2  C   UNL     1       0.590   1.258   0.000  1.00  0.00     0.189 C 
ATOM      3  O   UNL     1       0.613   2.757   0.000  1.00  0.00    -0.289 OA
BRANCH   2   4
ATOM      4  C   UNL     1      -0.721   0.528   0.000  1.00  0.00     0.065 A 
ATOM      5  C   UNL     1      -5.940  -0.891   0.000  1.00  0.00     0.122 C 
ATOM      6  C   UNL     1      -5.916   0.609   0.000  1.00  0.00     0.021 C 
ATOM      7  O   UNL     1      -4.653  -1.661   0.000  1.00  0.00    -0.483 OA
ATOM      8  C   UNL     1      -4.606   1.339   0.000  1.00  0.00     0.015 C 
ATOM      9  C   UNL     1      -3.342  -0.931   0.000  1.00  0.00     0.131 A 
ATOM     10  C   UNL     1      -3.319   0.569   0.000  1.00  0.00     0.059 A 
ATOM     11  C   UNL     1      -2.055  -1.702   0.000  1.00  0.00     0.048 A 
ATOM     12  C   UNL     1      -2.008   1.298   0.000  1.00  0.00     0.137 A 
ATOM     13  C   UNL     1      -0.744  -0.972   0.000  1.00  0.00     0.020 A 
ATOM     14  C   UNL     1      -6.475  -2.292   0.000  1.00  0.00     0.061 C 
ATOM     15  C   UNL     1      -7.413  -0.607   0.000  1.00  0.00     0.061 C 
BRANCH  12  16
ATOM     16  O   UNL     1      -1.984   2.798   0.000  1.00  0.00    -0.506 OA
ATOM     17  H   UNL     1       0.000   0.000   0.000  1.00  0.00     0.293 HD
ENDBRANCH  12  16
ENDBRANCH   2   4
ENDBRANCH   1   2
BRANCH   1  18
ATOM     18  C   UNL     1       3.188   1.217   0.000  1.00  0.00     0.012 C 
BRANCH  18  19
ATOM     19  C   UNL     1       4.475   0.447   0.000  1.00  0.00    -0.025 A 
ATOM     20  C   UNL     1       4.451  -1.053   0.000  1.00  0.00     0.012 A 
ATOM     21  C   UNL     1       5.785   1.176   0.000  1.00  0.00     0.012 A 
ATOM     22  C   UNL     1       5.738  -1.823   0.000  1.00  0.00     0.047 A 
ATOM     23  C   UNL     1       7.072   0.406   0.000  1.00  0.00     0.047 A 
ATOM     24  C   UNL     1       7.049  -1.094   0.000  1.00  0.00     0.115 A 
BRANCH  24  25
ATOM     25  O   UNL     1       8.336  -1.864   0.000  1.00  0.00    -0.508 OA
ATOM     26  H   UNL     1       0.000   0.000   0.000  1.00  0.00     0.293 HD
ENDBRANCH  24  25
ENDBRANCH  18  19
ENDBRANCH   1  18
TORSDOF 6
