REMARK SMILES O=C(C=CC=CCCc1ccc2c(c1)OCO2)N1CCCC1
REMARK SMILES IDX 5 1 4 2 3 3 2 4 18 5 19 6 22 7 20 8 21 9 1 10 6 11 7 12 8 13
REMARK SMILES IDX 9 14 10 15 14 16 11 17 13 18 12 19 15 20 17 21 16 22
REMARK H PARENT
ROOT
ATOM      1  C   UNL     1       1.468   0.148   0.000  1.00  0.00    -0.004 C 
ENDROOT
BRANCH   1   2
ATOM      2  C   UNL     1       2.799   0.839   0.000  1.00  0.00     0.005 C 
BRANCH   2   3
ATOM      3  C   UNL     1       4.063   0.031   0.000  1.00  0.00     0.071 C 
BRANCH   3   4
ATOM      4  C   UNL     1       5.394   0.722   0.000  1.00  0.00     0.246 C 
ATOM      5  N   UNL     1       6.659  -0.085   0.000  1.00  0.00    -0.339 N 
ATOM      6  C   UNL     1       8.055   0.463   0.000  1.00  0.00     0.120 C 
ATOM      7  C   UNL     1       6.748  -1.582   0.000  1.00  0.00     0.120 C 
ATOM      8  C   UNL     1       9.008  -0.695   0.000  1.00  0.00     0.023 C 
ATOM      9  C   UNL     1       8.200  -1.960   0.000  1.00  0.00     0.023 C 
ATOM     10  O   UNL     1       5.462   2.221   0.000  1.00  0.00    -0.270 OA
ENDBRANCH   3   4
ENDBRANCH   2   3
ENDBRANCH   1   2
BRANCH   1  11
ATOM     11  C   UNL     1       0.204   0.955   0.000  1.00  0.00    -0.027 C 
BRANCH  11  12
ATOM     12  C   UNL     1      -1.128   0.264   0.000  1.00  0.00     0.032 C 
BRANCH  12  13
ATOM     13  C   UNL     1      -2.392   1.071   0.000  1.00  0.00     0.040 C 
BRANCH  13  14
ATOM     14  C   UNL     1      -3.723   0.380   0.000  1.00  0.00    -0.044 A 
ATOM     15  C   UNL     1      -3.790  -1.118   0.000  1.00  0.00     0.008 A 
ATOM     16  C   UNL     1      -4.987   1.188   0.000  1.00  0.00     0.054 A 
ATOM     17  C   UNL     1      -5.122  -1.809   0.000  1.00  0.00     0.051 A 
ATOM     18  C   UNL     1      -6.319   0.496   0.000  1.00  0.00     0.166 A 
ATOM     19  C   UNL     1      -6.386  -1.002   0.000  1.00  0.00     0.165 A 
ATOM     20  O   UNL     1      -7.723   1.023   0.000  1.00  0.00    -0.454 OA
ATOM     21  O   UNL     1      -7.832  -1.401   0.000  1.00  0.00    -0.454 OA
ATOM     22  C   UNL     1      -8.658  -0.149   0.000  1.00  0.00     0.468 C 
ENDBRANCH  13  14
ENDBRANCH  12  13
ENDBRANCH  11  12
ENDBRANCH   1  11
TORSDOF 7
