REMARK SMILES O=c1c(O)c(-c2ccc(O)cc2)oc2cc(O)cc(O)c12
REMARK SMILES IDX 1 1 2 2 3 3 5 4 13 5 14 6 15 7 16 8 18 9 19 10 21 11 4 12
REMARK SMILES IDX 6 14 7 15 12 16 8 17 11 18 9 19 10 20 20 22 17 24
REMARK H PARENT 4 13 10 21 20 23 17 25
ROOT
ATOM      1  O   UNL     1       1.807   3.090   0.000  1.00  0.00    -0.285 OA
ATOM      2  C   UNL     1       1.260   1.693   0.000  1.00  0.00     0.238 A 
ATOM      3  C   UNL     1      -0.223   1.468   0.000  1.00  0.00     0.208 A 
ATOM      4  C   UNL     1      -0.769   0.071   0.000  1.00  0.00     0.180 A 
ATOM      5  O   UNL     1       0.167  -1.101   0.000  1.00  0.00    -0.452 OA
ATOM      6  C   UNL     1       1.650  -0.876   0.000  1.00  0.00     0.146 A 
ATOM      7  C   UNL     1       2.587  -2.047   0.000  1.00  0.00     0.094 A 
ATOM      8  C   UNL     1       4.070  -1.822   0.000  1.00  0.00     0.123 A 
ATOM      9  C   UNL     1       4.616  -0.425   0.000  1.00  0.00     0.093 A 
ATOM     10  C   UNL     1       3.680   0.747   0.000  1.00  0.00     0.134 A 
ATOM     11  C   UNL     1       2.197   0.521   0.000  1.00  0.00     0.111 A 
ENDROOT
BRANCH   3  12
ATOM     12  O   UNL     1      -1.159   2.639   0.000  1.00  0.00    -0.502 OA
ATOM     13  H   UNL     1       0.000   0.000   0.000  1.00  0.00     0.293 HD
ENDBRANCH   3  12
BRANCH   4  14
ATOM     14  C   UNL     1      -2.252  -0.154   0.000  1.00  0.00     0.021 A 
ATOM     15  C   UNL     1      -3.189   1.017   0.000  1.00  0.00     0.016 A 
ATOM     16  C   UNL     1      -2.799  -1.551   0.000  1.00  0.00     0.016 A 
ATOM     17  C   UNL     1      -4.672   0.792   0.000  1.00  0.00     0.047 A 
ATOM     18  C   UNL     1      -4.282  -1.776   0.000  1.00  0.00     0.047 A 
ATOM     19  C   UNL     1      -5.218  -0.605   0.000  1.00  0.00     0.115 A 
BRANCH  19  20
ATOM     20  O   UNL     1      -6.701  -0.830   0.000  1.00  0.00    -0.508 OA
ATOM     21  H   UNL     1       0.000   0.000   0.000  1.00  0.00     0.293 HD
ENDBRANCH  19  20
ENDBRANCH   4  14
BRANCH  10  22
ATOM     22  O   UNL     1       4.226   2.143   0.000  1.00  0.00    -0.507 OA
ATOM     23  H   UNL     1       0.000   0.000   0.000  1.00  0.00     0.293 HD
ENDBRANCH  10  22
BRANCH   8  24
ATOM     24  O   UNL     1       5.006  -2.994   0.000  1.00  0.00    -0.508 OA
ATOM     25  H   UNL     1       0.000   0.000   0.000  1.00  0.00     0.293 HD
ENDBRANCH   8  24
TORSDOF 5
