REMARK SMILES C[C@@H](CC[C@H]1[C@]2(C)CCCC(C)(C)[C@H]2CC[C@@]1(C)O)CC(=O)O
REMARK SMILES IDX 1 1 2 2 3 3 4 4 5 5 6 6 17 7 8 8 14 9 16 10 9 11 11 12 15 13
REMARK SMILES IDX 10 14 7 15 18 16 12 17 13 18 19 19 20 21 21 22 22 23 23 24
REMARK H PARENT 19 20 23 25
ROOT
ATOM      1  C   UNL     1      -4.694   1.592   0.000  1.00  0.00     0.008 C 
ATOM      2  C   UNL     1      -3.565   0.604   0.000  1.00  0.00    -0.003 C 
ENDROOT
BRANCH   2   3
ATOM      3  C   UNL     1      -2.145   1.087   0.000  1.00  0.00     0.004 C 
BRANCH   3   4
ATOM      4  C   UNL     1      -1.017   0.099   0.000  1.00  0.00     0.007 C 
BRANCH   4   5
ATOM      5  C   UNL     1       0.403   0.583   0.000  1.00  0.00     0.027 C 
ATOM      6  C   UNL     1       1.532  -0.405   0.000  1.00  0.00    -0.024 C 
ATOM      7  C   UNL     1       0.695   2.054   0.000  1.00  0.00     0.065 C 
ATOM      8  C   UNL     1       1.241  -1.877   0.000  1.00  0.00     0.007 C 
ATOM      9  C   UNL     1       2.952   0.078   0.000  1.00  0.00     0.001 C 
ATOM     10  C   UNL     1       2.114   2.538   0.000  1.00  0.00     0.035 C 
ATOM     11  C   UNL     1       2.369  -2.865   0.000  1.00  0.00     0.001 C 
ATOM     12  C   UNL     1       4.081  -0.909   0.000  1.00  0.00    -0.032 C 
ATOM     13  C   UNL     1       3.243   1.550   0.000  1.00  0.00     0.007 C 
ATOM     14  C   UNL     1       3.789  -2.381   0.000  1.00  0.00     0.007 C 
ATOM     15  C   UNL     1       0.112  -0.889   0.000  1.00  0.00     0.012 C 
ATOM     16  C   UNL     1       0.465   3.537   0.000  1.00  0.00     0.042 C 
ATOM     17  C   UNL     1       4.857   0.374   0.000  1.00  0.00     0.011 C 
ATOM     18  C   UNL     1       5.479  -1.452   0.000  1.00  0.00     0.011 C 
BRANCH   7  19
ATOM     19  O   UNL     1      -0.805   2.086   0.000  1.00  0.00    -0.390 OA
ATOM     20  H   UNL     1       0.000   0.000   0.000  1.00  0.00     0.211 HD
ENDBRANCH   7  19
ENDBRANCH   4   5
ENDBRANCH   3   4
ENDBRANCH   2   3
BRANCH   2  21
ATOM     21  C   UNL     1      -3.857  -0.868   0.000  1.00  0.00     0.125 C 
BRANCH  21  22
ATOM     22  C   UNL     1      -5.277  -1.351   0.000  1.00  0.00     0.303 C 
ATOM     23  O   UNL     1      -6.405  -0.363   0.000  1.00  0.00    -0.252 OA
BRANCH  22  24
ATOM     24  O   UNL     1      -5.568  -2.823   0.000  1.00  0.00    -0.481 OA
ATOM     25  H   UNL     1       0.000   0.000   0.000  1.00  0.00     0.296 HD
ENDBRANCH  22  24
ENDBRANCH  21  22
ENDBRANCH   2  21
TORSDOF 7
