REMARK SMILES CC[C@H](CC[C@@H](C)[C@H]1CC[C@H]2[C@@H]3C[C@@H](O)C4=CC(=O)CC[C@]4(C)[C@H]3CC[C@]12C)C(C)C
REMARK SMILES IDX 5 1 4 2 3 3 2 4 1 5 29 6 30 7 31 8 6 9 7 10 8 11 9 12 27 13
REMARK SMILES IDX 10 14 26 15 11 16 25 17 12 18 24 19 13 20 22 21 14 22 21 23
REMARK SMILES IDX 16 24 20 25 17 26 18 27 28 28 23 29 19 30 15 31
REMARK H PARENT 15 32
ROOT
ATOM      1  C   UNL     1      -3.694  -0.666   0.000  1.00  0.00     0.004 C 
ENDROOT
BRANCH   1   2
ATOM      2  C   UNL     1      -5.160  -0.344   0.000  1.00  0.00     0.004 C 
BRANCH   2   3
ATOM      3  C   UNL     1      -5.614   1.085   0.000  1.00  0.00    -0.009 C 
BRANCH   3   4
ATOM      4  C   UNL     1      -7.079   1.406   0.000  1.00  0.00     0.000 C 
ATOM      5  C   UNL     1      -7.534   2.836   0.000  1.00  0.00     0.004 C 
ENDBRANCH   3   4
BRANCH   3   6
ATOM      6  C   UNL     1      -4.603   2.193   0.000  1.00  0.00    -0.014 C 
ATOM      7  C   UNL     1      -5.058   3.623   0.000  1.00  0.00     0.007 C 
ATOM      8  C   UNL     1      -3.138   1.872   0.000  1.00  0.00     0.007 C 
ENDBRANCH   3   6
ENDBRANCH   2   3
ENDBRANCH   1   2
BRANCH   1   9
ATOM      9  C   UNL     1      -3.240  -2.095   0.000  1.00  0.00    -0.011 C 
ATOM     10  C   UNL     1      -4.251  -3.204   0.000  1.00  0.00     0.008 C 
BRANCH   9  11
ATOM     11  C   UNL     1      -1.775  -2.417   0.000  1.00  0.00    -0.002 C 
ATOM     12  C   UNL     1      -1.173  -3.791   0.000  1.00  0.00     0.005 C 
ATOM     13  C   UNL     1      -0.654  -1.420   0.000  1.00  0.00    -0.026 C 
ATOM     14  C   UNL     1       0.319  -3.643   0.000  1.00  0.00     0.005 C 
ATOM     15  C   UNL     1      -0.644   0.080   0.000  1.00  0.00     0.007 C 
ATOM     16  C   UNL     1       0.640  -2.178   0.000  1.00  0.00    -0.001 C 
ATOM     17  C   UNL     1       0.660   0.822   0.000  1.00  0.00     0.005 C 
ATOM     18  C   UNL     1       1.944  -1.437   0.000  1.00  0.00    -0.001 C 
ATOM     19  C   UNL     1       1.954   0.063   0.000  1.00  0.00     0.003 C 
ATOM     20  C   UNL     1       3.239  -2.195   0.000  1.00  0.00     0.040 C 
ATOM     21  C   UNL     1       3.258   0.805   0.000  1.00  0.00    -0.005 C 
ATOM     22  C   UNL     1       4.542  -1.453   0.000  1.00  0.00     0.141 C 
ATOM     23  C   UNL     1       3.267   2.305   0.000  1.00  0.00     0.020 C 
ATOM     24  C   UNL     1       4.552   0.047   0.000  1.00  0.00    -0.032 C 
ATOM     25  C   UNL     1       4.571   3.047   0.000  1.00  0.00     0.081 C 
ATOM     26  C   UNL     1       5.856   0.788   0.000  1.00  0.00     0.049 C 
ATOM     27  C   UNL     1       5.865   2.288   0.000  1.00  0.00     0.155 C 
ATOM     28  C   UNL     1      -2.020  -0.801   0.000  1.00  0.00     0.012 C 
ATOM     29  C   UNL     1       1.964   1.563   0.000  1.00  0.00     0.016 C 
ATOM     30  O   UNL     1       7.169   3.030   0.000  1.00  0.00    -0.295 OA
BRANCH  22  31
ATOM     31  O   UNL     1       5.837  -2.211   0.000  1.00  0.00    -0.389 OA
ATOM     32  H   UNL     1       0.000   0.000   0.000  1.00  0.00     0.211 HD
ENDBRANCH  22  31
ENDBRANCH   9  11
ENDBRANCH   1   9
TORSDOF 7
