REMARK SMILES CC(C)=CCc1cc2ccc(=O)oc2cc1O
REMARK SMILES IDX 5 1 4 2 2 3 1 4 3 5 6 6 7 7 16 8 8 9 15 10 14 11 9 12 13 13
REMARK SMILES IDX 10 14 11 15 12 16 17 17
REMARK H PARENT 17 18
ROOT
ATOM      1  C   UNL     1      -2.491  -0.523   0.000  1.00  0.00     0.066 C 
ENDROOT
BRANCH   1   2
ATOM      2  C   UNL     1      -3.194   0.802   0.000  1.00  0.00    -0.023 C 
BRANCH   2   3
ATOM      3  C   UNL     1      -4.693   0.855   0.000  1.00  0.00    -0.080 C 
ATOM      4  C   UNL     1      -5.397   2.180   0.000  1.00  0.00     0.039 C 
ATOM      5  C   UNL     1      -5.489  -0.417   0.000  1.00  0.00     0.039 C 
ENDBRANCH   2   3
ENDBRANCH   1   2
BRANCH   1   6
ATOM      6  C   UNL     1      -0.992  -0.576   0.000  1.00  0.00    -0.002 A 
ATOM      7  C   UNL     1      -0.196   0.695   0.000  1.00  0.00     0.019 A 
ATOM      8  C   UNL     1      -0.288  -1.901   0.000  1.00  0.00     0.122 A 
ATOM      9  C   UNL     1       1.303   0.642   0.000  1.00  0.00     0.018 A 
ATOM     10  C   UNL     1       1.211  -1.955   0.000  1.00  0.00     0.094 A 
ATOM     11  C   UNL     1       2.006  -0.683   0.000  1.00  0.00     0.142 A 
ATOM     12  C   UNL     1       2.099   1.913   0.000  1.00  0.00     0.019 A 
ATOM     13  O   UNL     1       3.506  -0.736   0.000  1.00  0.00    -0.423 OA
ATOM     14  C   UNL     1       3.598   1.860   0.000  1.00  0.00     0.094 A 
ATOM     15  C   UNL     1       4.301   0.535   0.000  1.00  0.00     0.336 A 
ATOM     16  O   UNL     1       5.800   0.482   0.000  1.00  0.00    -0.246 OA
BRANCH   8  17
ATOM     17  O   UNL     1      -1.084  -3.173   0.000  1.00  0.00    -0.508 OA
ATOM     18  H   UNL     1       0.000   0.000   0.000  1.00  0.00     0.293 HD
ENDBRANCH   8  17
ENDBRANCH   1   6
TORSDOF 4
