REMARK SMILES Oc1ccc(/C=C/c2cc(O)c3c(c2)O[C@H](c2ccc(O)cc2)[C@H]3c2cc(O)c3c(c2)O[C@H](c2ccc(O)cc2)[C@H]3c2cc(O)cc(O)c2)cc1
REMARK SMILES IDX 8 1 9 2 10 3 12 4 13 5 14 6 15 7 16 8 24 9 7 10 6 11 5 12
REMARK SMILES IDX 2 13 3 14 51 15 4 16 50 17 1 18 11 20 25 22 26 23 31 24
REMARK SMILES IDX 27 25 30 26 29 27 32 28 41 29 33 30 28 31 42 33 43 34 49 35
REMARK SMILES IDX 44 36 47 37 46 38 45 39 48 41 34 43 35 44 40 45 36 46 39 47
REMARK SMILES IDX 37 48 38 49 17 51 18 52 23 53 19 54 22 55 20 56 21 57
REMARK H PARENT 1 19 11 21 28 32 45 40 48 42 38 50 21 58
ROOT
ATOM      1  C   UNL     1      -5.580  -0.666   0.000  1.00  0.00    -0.018 A 
ATOM      2  C   UNL     1      -4.445  -1.647   0.000  1.00  0.00     0.054 A 
ATOM      3  C   UNL     1      -3.028  -1.154   0.000  1.00  0.00     0.123 A 
ATOM      4  C   UNL     1      -2.747   0.319   0.000  1.00  0.00     0.047 A 
ATOM      5  C   UNL     1      -3.881   1.300   0.000  1.00  0.00     0.128 A 
ATOM      6  C   UNL     1      -5.298   0.808   0.000  1.00  0.00     0.055 A 
ATOM      7  O   UNL     1      -3.300   2.683   0.000  1.00  0.00    -0.484 OA
ATOM      8  C   UNL     1      -1.805   2.556   0.000  1.00  0.00     0.215 C 
ATOM      9  C   UNL     1      -1.463   1.096   0.000  1.00  0.00     0.103 C 
ENDROOT
BRANCH   1  10
ATOM     10  C   UNL     1      -6.997  -1.158   0.000  1.00  0.00     0.009 C 
BRANCH  10  11
ATOM     11  C   UNL     1      -8.132  -0.177   0.000  1.00  0.00     0.009 C 
BRANCH  11  12
ATOM     12  C   UNL     1      -9.549  -0.670   0.000  1.00  0.00    -0.025 A 
ATOM     13  C   UNL     1     -12.383  -1.655   0.000  1.00  0.00     0.115 A 
ATOM     14  C   UNL     1     -12.101  -0.182   0.000  1.00  0.00     0.047 A 
ATOM     15  C   UNL     1     -11.248  -2.636   0.000  1.00  0.00     0.047 A 
ATOM     16  C   UNL     1     -10.684   0.311   0.000  1.00  0.00     0.012 A 
ATOM     17  C   UNL     1      -9.831  -2.143   0.000  1.00  0.00     0.012 A 
BRANCH  13  18
ATOM     18  O   UNL     1     -13.799  -2.148   0.000  1.00  0.00    -0.508 OA
ATOM     19  H   UNL     1       0.000   0.000   0.000  1.00  0.00     0.293 HD
ENDBRANCH  13  18
ENDBRANCH  11  12
ENDBRANCH  10  11
ENDBRANCH   1  10
BRANCH   3  20
ATOM     20  O   UNL     1      -1.893  -2.135   0.000  1.00  0.00    -0.507 OA
ATOM     21  H   UNL     1       0.000   0.000   0.000  1.00  0.00     0.293 HD
ENDBRANCH   3  20
BRANCH   9  22
ATOM     22  C   UNL     1      -0.081   0.514   0.000  1.00  0.00    -0.029 A 
ATOM     23  C   UNL     1       0.107  -0.975   0.000  1.00  0.00     0.051 A 
ATOM     24  C   UNL     1       1.115   1.420   0.000  1.00  0.00     0.051 A 
ATOM     25  C   UNL     1       1.489  -1.557   0.000  1.00  0.00     0.123 A 
ATOM     26  C   UNL     1       2.497   0.838   0.000  1.00  0.00     0.128 A 
ATOM     27  C   UNL     1       2.684  -0.650   0.000  1.00  0.00     0.047 A 
ATOM     28  O   UNL     1       3.855   1.476   0.000  1.00  0.00    -0.484 OA
ATOM     29  C   UNL     1       4.158  -0.932   0.000  1.00  0.00     0.103 C 
ATOM     30  C   UNL     1       4.881   0.382   0.000  1.00  0.00     0.215 C 
BRANCH  25  31
ATOM     31  O   UNL     1       1.676  -3.045   0.000  1.00  0.00    -0.507 OA
ATOM     32  H   UNL     1       0.000   0.000   0.000  1.00  0.00     0.293 HD
ENDBRANCH  25  31
BRANCH  29  33
ATOM     33  C   UNL     1       4.796  -2.290   0.000  1.00  0.00    -0.029 A 
ATOM     34  C   UNL     1       3.939  -3.521   0.000  1.00  0.00     0.051 A 
ATOM     35  C   UNL     1       6.290  -2.416   0.000  1.00  0.00     0.051 A 
ATOM     36  C   UNL     1       4.577  -4.879   0.000  1.00  0.00     0.119 A 
ATOM     37  C   UNL     1       6.928  -3.774   0.000  1.00  0.00     0.119 A 
ATOM     38  C   UNL     1       6.072  -5.005   0.000  1.00  0.00     0.092 A 
BRANCH  36  39
ATOM     39  O   UNL     1       3.720  -6.110   0.000  1.00  0.00    -0.508 OA
ATOM     40  H   UNL     1       0.000   0.000   0.000  1.00  0.00     0.293 HD
ENDBRANCH  36  39
BRANCH  37  41
ATOM     41  O   UNL     1       8.423  -3.900   0.000  1.00  0.00    -0.508 OA
ATOM     42  H   UNL     1       0.000   0.000   0.000  1.00  0.00     0.293 HD
ENDBRANCH  37  41
ENDBRANCH  29  33
BRANCH  30  43
ATOM     43  C   UNL     1       6.369   0.569   0.000  1.00  0.00    -0.006 A 
ATOM     44  C   UNL     1       7.276  -0.626   0.000  1.00  0.00     0.011 A 
ATOM     45  C   UNL     1       6.951   1.952   0.000  1.00  0.00     0.011 A 
ATOM     46  C   UNL     1       8.764  -0.439   0.000  1.00  0.00     0.046 A 
ATOM     47  C   UNL     1       8.440   2.139   0.000  1.00  0.00     0.046 A 
ATOM     48  C   UNL     1       9.346   0.944   0.000  1.00  0.00     0.115 A 
BRANCH  48  49
ATOM     49  O   UNL     1      10.834   1.131   0.000  1.00  0.00    -0.508 OA
ATOM     50  H   UNL     1       0.000   0.000   0.000  1.00  0.00     0.293 HD
ENDBRANCH  48  49
ENDBRANCH  30  43
ENDBRANCH   9  22
BRANCH   8  51
ATOM     51  C   UNL     1      -0.824   3.691   0.000  1.00  0.00    -0.006 A 
ATOM     52  C   UNL     1       0.649   3.409   0.000  1.00  0.00     0.011 A 
ATOM     53  C   UNL     1      -1.317   5.108   0.000  1.00  0.00     0.011 A 
ATOM     54  C   UNL     1       1.630   4.544   0.000  1.00  0.00     0.046 A 
ATOM     55  C   UNL     1      -0.336   6.243   0.000  1.00  0.00     0.046 A 
ATOM     56  C   UNL     1       1.137   5.961   0.000  1.00  0.00     0.115 A 
BRANCH  56  57
ATOM     57  O   UNL     1       2.118   7.096   0.000  1.00  0.00    -0.508 OA
ATOM     58  H   UNL     1       0.000   0.000   0.000  1.00  0.00     0.293 HD
ENDBRANCH  56  57
ENDBRANCH   8  51
TORSDOF 14
