REMARK SMILES COc1c(OCC=C(C)C)ccc2c(=O)c(-c3ccc4c(c3)OCO4)coc12
REMARK SMILES IDX 5 1 4 2 3 3 28 4 11 5 13 6 27 7 12 8 14 9 26 10 16 11 15 12
REMARK SMILES IDX 2 13 1 14 17 15 18 16 22 17 19 18 21 19 20 20 23 21 25 22
REMARK SMILES IDX 24 23 6 24 7 25 8 26 9 27 10 28
REMARK H PARENT
ROOT
ATOM      1  O   UNL     1      -4.703  -0.712   0.000  1.00  0.00    -0.485 OA
ENDROOT
BRANCH   1   2
ATOM      2  C   UNL     1      -3.254  -0.323   0.000  1.00  0.00     0.165 A 
ATOM      3  C   UNL     1      -2.193  -1.383   0.000  1.00  0.00     0.204 A 
ATOM      4  C   UNL     1      -0.744  -0.993   0.000  1.00  0.00     0.183 A 
ATOM      5  C   UNL     1      -2.867   1.126   0.000  1.00  0.00     0.051 A 
ATOM      6  C   UNL     1      -0.357   0.456   0.000  1.00  0.00     0.069 A 
ATOM      7  O   UNL     1       0.317  -2.053   0.000  1.00  0.00    -0.459 OA
ATOM      8  C   UNL     1      -1.419   1.516   0.000  1.00  0.00     0.020 A 
ATOM      9  C   UNL     1       1.091   0.845   0.000  1.00  0.00     0.200 A 
ATOM     10  C   UNL     1       1.766  -1.664   0.000  1.00  0.00     0.208 A 
ATOM     11  C   UNL     1       2.153  -0.215   0.000  1.00  0.00     0.065 A 
ATOM     12  O   UNL     1       1.479   2.294   0.000  1.00  0.00    -0.288 OA
BRANCH   3  13
ATOM     13  O   UNL     1      -2.580  -2.832   0.000  1.00  0.00    -0.490 OA
ATOM     14  C   UNL     1      -4.029  -3.221   0.000  1.00  0.00     0.278 C 
ENDBRANCH   3  13
BRANCH  11  15
ATOM     15  C   UNL     1       3.602   0.175   0.000  1.00  0.00    -0.007 A 
ATOM     16  C   UNL     1       3.989   1.624   0.000  1.00  0.00     0.013 A 
ATOM     17  C   UNL     1       4.663  -0.885   0.000  1.00  0.00     0.059 A 
ATOM     18  C   UNL     1       5.437   2.013   0.000  1.00  0.00     0.051 A 
ATOM     19  C   UNL     1       6.112  -0.496   0.000  1.00  0.00     0.166 A 
ATOM     20  C   UNL     1       6.499   0.953   0.000  1.00  0.00     0.165 A 
ATOM     21  O   UNL     1       7.370  -1.312   0.000  1.00  0.00    -0.454 OA
ATOM     22  O   UNL     1       7.997   1.033   0.000  1.00  0.00    -0.454 OA
ATOM     23  C   UNL     1       8.535  -0.367   0.000  1.00  0.00     0.468 C 
ENDBRANCH  11  15
ENDBRANCH   1   2
BRANCH   1  24
ATOM     24  C   UNL     1      -5.764   0.348   0.000  1.00  0.00     0.257 C 
BRANCH  24  25
ATOM     25  C   UNL     1      -7.213  -0.042   0.000  1.00  0.00     0.012 C 
BRANCH  25  26
ATOM     26  C   UNL     1      -8.274   1.018   0.000  1.00  0.00    -0.077 C 
ATOM     27  C   UNL     1      -9.723   0.629   0.000  1.00  0.00     0.039 C 
ATOM     28  C   UNL     1      -7.887   2.468   0.000  1.00  0.00     0.039 C 
ENDBRANCH  25  26
ENDBRANCH  24  25
ENDBRANCH   1  24
TORSDOF 6
