REMARK SMILES COC(=O)C[C@H]1C(C)(C)[C@H](OC(=O)C(C)C)C2C(=O)[C@]1(C)[C@H]1CC[C@]3(C)[C@@H](CC(=O)O[C@H]3c3ccoc3)[C@]13O[C@H]23
REMARK SMILES IDX 6 1 7 2 8 3 9 4 10 5 17 6 18 7 19 8 20 9 21 10 22 11 23 12
REMARK SMILES IDX 24 13 25 14 26 15 27 16 28 17 29 18 30 19 31 20 32 21 38 22
REMARK SMILES IDX 39 23 40 24 5 25 3 26 4 27 2 28 1 29 11 30 12 31 13 32 14 33
REMARK SMILES IDX 15 34 16 35 33 36 37 37 34 38 36 39 35 40
REMARK H PARENT
ROOT
ATOM      1  C   UNL     1      -2.318   2.100   0.000  1.00  0.00     0.023 C 
ATOM      2  C   UNL     1      -3.579   1.287   0.000  1.00  0.00     0.007 C 
ATOM      3  C   UNL     1      -4.160   2.670   0.000  1.00  0.00     0.015 C 
ATOM      4  C   UNL     1      -5.042   0.955   0.000  1.00  0.00     0.015 C 
ATOM      5  C   UNL     1      -3.506  -0.211   0.000  1.00  0.00     0.195 C 
ATOM      6  C   UNL     1      -2.171  -0.896   0.000  1.00  0.00     0.130 C 
ATOM      7  C   UNL     1      -2.245   0.602   0.000  1.00  0.00     0.148 C 
ATOM      8  O   UNL     1      -3.021   0.784   0.000  1.00  0.00    -0.298 OA
ATOM      9  C   UNL     1      -0.984   1.415   0.000  1.00  0.00     0.036 C 
ATOM     10  C   UNL     1      -1.057   2.913   0.000  1.00  0.00     0.020 C 
ATOM     11  C   UNL     1       0.350   0.729   0.000  1.00  0.00     0.038 C 
ATOM     12  C   UNL     1       1.611   1.542   0.000  1.00  0.00     0.008 C 
ATOM     13  C   UNL     1       2.945   0.856   0.000  1.00  0.00     0.012 C 
ATOM     14  C   UNL     1       3.019  -0.642   0.000  1.00  0.00     0.015 C 
ATOM     15  C   UNL     1       4.279   0.171   0.000  1.00  0.00     0.016 C 
ATOM     16  C   UNL     1       1.758  -1.455   0.000  1.00  0.00     0.045 C 
ATOM     17  C   UNL     1       1.831  -2.953   0.000  1.00  0.00     0.130 C 
ATOM     18  C   UNL     1       3.165  -3.638   0.000  1.00  0.00     0.306 C 
ATOM     19  O   UNL     1       3.239  -5.137   0.000  1.00  0.00    -0.252 OA
ATOM     20  O   UNL     1       4.426  -2.826   0.000  1.00  0.00    -0.457 OA
ATOM     21  C   UNL     1       4.353  -1.327   0.000  1.00  0.00     0.216 C 
ATOM     22  C   UNL     1       0.424  -0.769   0.000  1.00  0.00     0.103 C 
ATOM     23  O   UNL     1       0.497  -2.267   0.000  1.00  0.00    -0.364 OA
ATOM     24  C   UNL     1      -0.837  -1.582   0.000  1.00  0.00     0.166 C 
ENDROOT
BRANCH   1  25
ATOM     25  C   UNL     1      -2.392   3.598   0.000  1.00  0.00     0.128 C 
BRANCH  25  26
ATOM     26  C   UNL     1      -1.131   4.411   0.000  1.00  0.00     0.305 C 
ATOM     27  O   UNL     1       0.203   3.725   0.000  1.00  0.00    -0.252 OA
BRANCH  26  28
ATOM     28  O   UNL     1      -1.204   5.909   0.000  1.00  0.00    -0.469 OA
ATOM     29  C   UNL     1       0.057   6.722   0.000  1.00  0.00     0.282 C 
ENDBRANCH  26  28
ENDBRANCH  25  26
ENDBRANCH   1  25
BRANCH   5  30
ATOM     30  O   UNL     1      -4.766  -1.024   0.000  1.00  0.00    -0.461 OA
BRANCH  30  31
ATOM     31  C   UNL     1      -4.693  -2.522   0.000  1.00  0.00     0.308 C 
ATOM     32  O   UNL     1      -3.359  -3.207   0.000  1.00  0.00    -0.252 OA
BRANCH  31  33
ATOM     33  C   UNL     1      -5.954  -3.334   0.000  1.00  0.00     0.093 C 
ATOM     34  C   UNL     1      -5.880  -4.833   0.000  1.00  0.00     0.019 C 
ATOM     35  C   UNL     1      -7.288  -2.649   0.000  1.00  0.00     0.019 C 
ENDBRANCH  31  33
ENDBRANCH  30  31
ENDBRANCH   5  30
BRANCH  21  36
ATOM     36  C   UNL     1       5.614  -0.515   0.000  1.00  0.00     0.031 A 
ATOM     37  C   UNL     1       5.697   0.983   0.000  1.00  0.00     0.202 A 
ATOM     38  C   UNL     1       7.012  -1.057   0.000  1.00  0.00     0.049 A 
ATOM     39  O   UNL     1       7.147   1.366   0.000  1.00  0.00    -0.472 OA
ATOM     40  C   UNL     1       7.960   0.105   0.000  1.00  0.00     0.195 A 
ENDBRANCH  21  36
TORSDOF 7
