REMARK SMILES COc1ccc2c(c1)N(C(C)=O)[C@H]1[C@@H]3[C@H](O)OCC=C4CN5CC[C@]21[C@@H]5C[C@@H]43
REMARK SMILES IDX 3 1 4 2 5 3 6 4 7 5 8 6 9 7 13 8 14 9 20 10 21 11 22 12
REMARK SMILES IDX 23 13 24 14 25 15 26 16 27 17 28 18 2 19 1 20 10 21 11 22
REMARK SMILES IDX 12 23 15 24 16 25 17 27 18 28 19 30
REMARK H PARENT 16 26
REMARK Flexibility Score:    8.900
ROOT
ATOM      1  C   UNL     1      -4.381  -0.499   0.000  1.00  0.00     0.120 A 
ATOM      2  C   UNL     1      -4.234   0.994   0.000  1.00  0.00     0.047 A 
ATOM      3  C   UNL     1      -2.867   1.612   0.000  1.00  0.00     0.010 A 
ATOM      4  C   UNL     1      -1.648   0.738   0.000  1.00  0.00    -0.014 A 
ATOM      5  C   UNL     1      -1.796  -0.755   0.000  1.00  0.00     0.052 A 
ATOM      6  C   UNL     1      -3.162  -1.373   0.000  1.00  0.00     0.073 A 
ATOM      7  N   UNL     1      -0.422  -1.357   0.000  1.00  0.00    -0.308 N 
ATOM      8  C   UNL     1       0.575  -0.236   0.000  1.00  0.00     0.111 C 
ATOM      9  C   UNL     1       2.075  -0.226   0.000  1.00  0.00     0.077 C 
ATOM     10  C   UNL     1       4.299   1.310   0.000  1.00  0.00    -0.054 C 
ATOM     11  C   UNL     1       1.041   3.616   0.000  1.00  0.00     0.116 C 
ATOM     12  N   UNL     1      -0.452   3.471   0.000  1.00  0.00    -0.295 NA
ATOM     13  C   UNL     1      -0.385   2.875   0.000  1.00  0.00     0.086 C 
ATOM     14  C   UNL     1      -0.249   1.654   0.000  1.00  0.00     0.031 C 
ATOM     15  C   UNL     1      -0.183   1.059   0.000  1.00  0.00     0.036 C 
ATOM     16  C   UNL     1       0.559   2.362   0.000  1.00  0.00     0.070 C 
ATOM     17  C   UNL     1       2.059   2.372   0.000  1.00  0.00     0.028 C 
ATOM     18  C   UNL     1       2.817   1.077   0.000  1.00  0.00     0.028 C 
ENDROOT
BRANCH   1  19
ATOM     19  O   UNL     1      -5.748  -1.118   0.000  1.00  0.00    -0.497 OA
ATOM     20  C   UNL     1      -6.967  -0.244   0.000  1.00  0.00     0.278 C 
ENDBRANCH   1  19
BRANCH   7  21
ATOM     21  C   UNL     1      -0.101  -2.822   0.000  1.00  0.00     0.224 C 
ATOM     22  C   UNL     1       1.126  -3.385   0.000  1.00  0.00     0.115 C 
ATOM     23  O   UNL     1      -1.209  -3.832   0.000  1.00  0.00    -0.275 OA
ENDBRANCH   7  21
BRANCH   9  24
ATOM     24  C   UNL     1       2.632  -1.619   0.000  1.00  0.00     0.252 C 
BRANCH  24  25
ATOM     25  O   UNL     1       1.848  -2.718   0.000  1.00  0.00    -0.368 OA
ATOM     26  H   UNL     1       0.000   0.000   0.000  1.00  0.00     0.213 HD
ENDBRANCH  24  25
BRANCH  24  27
ATOM     27  O   UNL     1       4.068  -2.053   0.000  1.00  0.00    -0.348 OA
BRANCH  27  28
ATOM     28  C   UNL     1       5.302  -1.200   0.000  1.00  0.00     0.191 CG0
ATOM     29  G   UNL     1       5.405   0.296   0.000  1.00  0.00     0.000 G0
ENDBRANCH  27  28
ENDBRANCH  24  27
ENDBRANCH   9  24
BRANCH  10  30
ATOM     30  C   UNL     1       5.405   0.296   0.000  1.00  0.00     0.002 CG0
ATOM     31  G   UNL     1       5.302  -1.200   0.000  1.00  0.00     0.000 G0
ENDBRANCH  10  30
TORSDOF 3
