REMARK SMILES C=C/C(C)=C\C[C@]1(C)[C@H](C)[C@@H](OC(=O)CCC)C[C@@]23C(=C[C@H](O)C[C@@H]12)[C@@H](OC(C)=O)O[C@H]3OC(=O)CCC
REMARK SMILES IDX 7 1 8 2 9 3 10 4 11 5 18 6 19 7 20 8 21 9 22 10 24 11 25 12
REMARK SMILES IDX 26 13 31 14 32 15 6 16 5 17 3 18 4 19 2 20 1 21 12 22 13 23
REMARK SMILES IDX 14 24 15 25 16 26 17 27 23 28 33 30 34 31 35 32 36 33 37 34
REMARK SMILES IDX 38 35 27 36 28 37 29 38 30 39
REMARK H PARENT 23 29
ROOT
ATOM      1  C   UNL     1       0.420  -1.888   0.000  1.00  0.00    -0.019 C 
ATOM      2  C   UNL     1       0.255  -3.378   0.000  1.00  0.00     0.012 C 
ATOM      3  C   UNL     1       1.085  -0.543   0.000  1.00  0.00     0.033 C 
ATOM      4  C   UNL     1       2.582  -0.447   0.000  1.00  0.00     0.012 C 
ATOM      5  C   UNL     1       0.254   0.705   0.000  1.00  0.00     0.181 C 
ATOM      6  C   UNL     1      -1.243   0.609   0.000  1.00  0.00     0.064 C 
ATOM      7  C   UNL     1      -1.909  -0.735   0.000  1.00  0.00     0.067 C 
ATOM      8  C   UNL     1      -3.405  -0.831   0.000  1.00  0.00     0.009 C 
ATOM      9  C   UNL     1      -4.071  -2.175   0.000  1.00  0.00     0.011 C 
ATOM     10  C   UNL     1      -3.239  -3.424   0.000  1.00  0.00     0.137 C 
ATOM     11  C   UNL     1      -1.742  -3.328   0.000  1.00  0.00     0.041 C 
ATOM     12  C   UNL     1      -1.077  -1.984   0.000  1.00  0.00     0.015 C 
ATOM     13  C   UNL     1      -3.005  -1.213   0.000  1.00  0.00     0.342 C 
ATOM     14  O   UNL     1      -2.670  -0.575   0.000  1.00  0.00    -0.298 OA
ATOM     15  C   UNL     1      -2.257  -1.165   0.000  1.00  0.00     0.325 C 
ENDROOT
BRANCH   1  16
ATOM     16  C   UNL     1       1.859  -2.309   0.000  1.00  0.00     0.035 C 
BRANCH  16  17
ATOM     17  C   UNL     1       2.214  -3.767   0.000  1.00  0.00    -0.023 C 
BRANCH  17  18
ATOM     18  C   UNL     1       3.653  -4.189   0.000  1.00  0.00    -0.056 C 
ATOM     19  C   UNL     1       4.008  -5.646   0.000  1.00  0.00     0.044 C 
BRANCH  18  20
ATOM     20  C   UNL     1       4.738  -3.153   0.000  1.00  0.00    -0.005 C 
ATOM     21  C   UNL     1       6.178  -3.575   0.000  1.00  0.00     0.009 C 
ENDBRANCH  18  20
ENDBRANCH  17  18
ENDBRANCH  16  17
ENDBRANCH   1  16
BRANCH   5  22
ATOM     22  O   UNL     1       0.919   2.050   0.000  1.00  0.00    -0.462 OA
BRANCH  22  23
ATOM     23  C   UNL     1       2.416   2.146   0.000  1.00  0.00     0.306 C 
ATOM     24  O   UNL     1       3.248   0.897   0.000  1.00  0.00    -0.252 OA
BRANCH  23  25
ATOM     25  C   UNL     1       3.081   3.490   0.000  1.00  0.00     0.122 C 
BRANCH  25  26
ATOM     26  C   UNL     1       4.578   3.586   0.000  1.00  0.00     0.008 C 
ATOM     27  C   UNL     1       5.244   4.930   0.000  1.00  0.00     0.004 C 
ENDBRANCH  25  26
ENDBRANCH  23  25
ENDBRANCH  22  23
ENDBRANCH   5  22
BRANCH  10  28
ATOM     28  O   UNL     1      -3.905  -4.768   0.000  1.00  0.00    -0.389 OA
ATOM     29  H   UNL     1       0.000   0.000   0.000  1.00  0.00     0.211 HD
ENDBRANCH  10  28
BRANCH  15  30
ATOM     30  O   UNL     1      -0.143   1.272   0.000  1.00  0.00    -0.435 OA
BRANCH  30  31
ATOM     31  C   UNL     1       0.074   2.756   0.000  1.00  0.00     0.308 C 
ATOM     32  O   UNL     1      -1.103   3.687   0.000  1.00  0.00    -0.252 OA
BRANCH  31  33
ATOM     33  C   UNL     1       1.468   3.310   0.000  1.00  0.00     0.122 C 
BRANCH  33  34
ATOM     34  C   UNL     1       1.685   4.794   0.000  1.00  0.00     0.008 C 
ATOM     35  C   UNL     1       3.079   5.348   0.000  1.00  0.00     0.004 C 
ENDBRANCH  33  34
ENDBRANCH  31  33
ENDBRANCH  30  31
ENDBRANCH  15  30
BRANCH  13  36
ATOM     36  O   UNL     1      -5.413   0.934   0.000  1.00  0.00    -0.432 OA
BRANCH  36  37
ATOM     37  C   UNL     1      -5.818   2.378   0.000  1.00  0.00     0.305 C 
ATOM     38  C   UNL     1      -7.271   2.750   0.000  1.00  0.00     0.139 C 
ATOM     39  O   UNL     1      -4.769   3.451   0.000  1.00  0.00    -0.253 OA
ENDBRANCH  36  37
ENDBRANCH  13  36
TORSDOF 15
