REMARK SMILES COc1cc(O)c2c(=O)oc(C)cc2c1Cl
REMARK SMILES IDX 3 1 4 2 5 3 7 4 8 5 9 6 10 7 11 8 12 9 13 10 14 11 15 12
REMARK SMILES IDX 16 13 2 14 1 15 6 16
REMARK H PARENT 6 17
ROOT
ATOM      1  C   UNL     1      -2.319  -0.328   0.000  1.00  0.00     0.141 A 
ATOM      2  C   UNL     1      -1.758  -1.719   0.000  1.00  0.00     0.095 A 
ATOM      3  C   UNL     1      -0.273  -1.929   0.000  1.00  0.00     0.134 A 
ATOM      4  C   UNL     1       0.652  -0.748   0.000  1.00  0.00     0.111 A 
ATOM      5  C   UNL     1       2.137  -0.958   0.000  1.00  0.00     0.347 A 
ATOM      6  O   UNL     1       2.697  -2.349   0.000  1.00  0.00    -0.246 OA
ATOM      7  O   UNL     1       3.061   0.223   0.000  1.00  0.00    -0.428 OA
ATOM      8  C   UNL     1       2.501   1.614   0.000  1.00  0.00     0.105 A 
ATOM      9  C   UNL     1       3.425   2.795   0.000  1.00  0.00     0.088 C 
ATOM     10  C   UNL     1       1.016   1.824   0.000  1.00  0.00     0.053 A 
ATOM     11  C   UNL     1       0.091   0.643   0.000  1.00  0.00     0.019 A 
ATOM     12  C   UNL     1      -1.394   0.853   0.000  1.00  0.00     0.091 A 
ATOM     13  Cl  UNL     1      -1.955   2.244   0.000  1.00  0.00    -0.080 Cl
ENDROOT
BRANCH   1  14
ATOM     14  O   UNL     1      -3.804  -0.118   0.000  1.00  0.00    -0.495 OA
ATOM     15  C   UNL     1      -4.365   1.273   0.000  1.00  0.00     0.278 C 
ENDBRANCH   1  14
BRANCH   3  16
ATOM     16  O   UNL     1       0.288  -3.321   0.000  1.00  0.00    -0.507 OA
ATOM     17  H   UNL     1       0.000   0.000   0.000  1.00  0.00     0.293 HD
ENDBRANCH   3  16
TORSDOF 2
