REMARK SMILES C=CC[C@]12CC(=O)[C@@H](O)[C@](OC)(C1O)[C@H](c1ccc3c(c1)OCO3)[C@H]2C
REMARK SMILES IDX 4 1 5 2 6 3 7 4 8 5 10 6 13 7 15 8 25 9 26 10 3 11 2 12 1 13
REMARK SMILES IDX 14 14 11 16 12 17 16 18 17 19 21 20 18 21 20 22 19 23 22 24
REMARK SMILES IDX 24 25 23 26 9 27
REMARK H PARENT 14 15 9 28
ROOT
ATOM      1  C   UNL     1       2.461   0.847   0.000  1.00  0.00     0.013 C 
ATOM      2  C   UNL     1       3.742   0.066   0.000  1.00  0.00     0.089 C 
ATOM      3  C   UNL     1       3.706  -1.433   0.000  1.00  0.00     0.165 C 
ATOM      4  O   UNL     1       4.987  -2.213   0.000  1.00  0.00    -0.297 OA
ATOM      5  C   UNL     1       2.390  -2.152   0.000  1.00  0.00     0.216 C 
ATOM      6  C   UNL     1       1.109  -1.372   0.000  1.00  0.00     0.134 C 
ATOM      7  C   UNL     1       1.144   0.128   0.000  1.00  0.00     0.157 C 
ATOM      8  C   UNL     1       0.221  -0.088   0.000  1.00  0.00     0.061 C 
ATOM      9  C   UNL     1       1.001   1.193   0.000  1.00  0.00     0.006 C 
ATOM     10  C   UNL     1       0.423   2.577   0.000  1.00  0.00     0.009 C 
ENDROOT
BRANCH   1  11
ATOM     11  C   UNL     1       2.496   2.346   0.000  1.00  0.00     0.037 C 
BRANCH  11  12
ATOM     12  C   UNL     1       3.812   3.066   0.000  1.00  0.00    -0.034 C 
ATOM     13  C   UNL     1       3.848   4.565   0.000  1.00  0.00     0.004 C 
ENDBRANCH  11  12
ENDBRANCH   1  11
BRANCH   7  14
ATOM     14  O   UNL     1      -0.137   0.908   0.000  1.00  0.00    -0.389 OA
ATOM     15  H   UNL     1       0.000   0.000   0.000  1.00  0.00     0.211 HD
ENDBRANCH   7  14
BRANCH   6  16
ATOM     16  O   UNL     1      -0.207  -2.091   0.000  1.00  0.00    -0.372 OA
ATOM     17  C   UNL     1      -0.243  -3.591   0.000  1.00  0.00     0.196 C 
ENDBRANCH   6  16
BRANCH   8  18
ATOM     18  C   UNL     1      -1.274  -0.210   0.000  1.00  0.00    -0.038 A 
ATOM     19  C   UNL     1      -1.916  -1.565   0.000  1.00  0.00     0.008 A 
ATOM     20  C   UNL     1      -2.127   1.024   0.000  1.00  0.00     0.054 A 
ATOM     21  C   UNL     1      -3.411  -1.687   0.000  1.00  0.00     0.051 A 
ATOM     22  C   UNL     1      -3.622   0.903   0.000  1.00  0.00     0.166 A 
ATOM     23  C   UNL     1      -4.264  -0.453   0.000  1.00  0.00     0.165 A 
ATOM     24  O   UNL     1      -4.713   1.932   0.000  1.00  0.00    -0.454 OA
ATOM     25  O   UNL     1      -5.752  -0.261   0.000  1.00  0.00    -0.454 OA
ATOM     26  C   UNL     1      -6.029   1.213   0.000  1.00  0.00     0.468 C 
ENDBRANCH   8  18
BRANCH   5  27
ATOM     27  O   UNL     1       2.355  -3.652   0.000  1.00  0.00    -0.382 OA
ATOM     28  H   UNL     1       0.000   0.000   0.000  1.00  0.00     0.211 HD
ENDBRANCH   5  27
TORSDOF 6
