REMARK SMILES COc1cc2ccc(=O)oc2cc1OC
REMARK SMILES IDX 3 1 4 2 5 3 11 4 12 5 13 6 10 7 8 8 9 9 7 10 6 11 2 12 1 13
REMARK SMILES IDX 14 14 15 15
REMARK H PARENT
ROOT
ATOM      1  C   UNL     1      -1.900   0.648   0.000  1.00  0.00     0.161 A 
ATOM      2  C   UNL     1      -0.690   1.534   0.000  1.00  0.00     0.062 A 
ATOM      3  C   UNL     1       0.683   0.929   0.000  1.00  0.00     0.022 A 
ATOM      4  C   UNL     1       0.845  -0.562   0.000  1.00  0.00     0.142 A 
ATOM      5  C   UNL     1      -0.365  -1.448   0.000  1.00  0.00     0.098 A 
ATOM      6  C   UNL     1      -1.738  -0.843   0.000  1.00  0.00     0.164 A 
ATOM      7  O   UNL     1       2.218  -1.167   0.000  1.00  0.00    -0.423 OA
ATOM      8  C   UNL     1       3.428  -0.280   0.000  1.00  0.00     0.336 A 
ATOM      9  O   UNL     1       4.801  -0.885   0.000  1.00  0.00    -0.246 OA
ATOM     10  C   UNL     1       3.265   1.211   0.000  1.00  0.00     0.094 A 
ATOM     11  C   UNL     1       1.893   1.816   0.000  1.00  0.00     0.019 A 
ENDROOT
BRANCH   1  12
ATOM     12  O   UNL     1      -3.273   1.253   0.000  1.00  0.00    -0.493 OA
ATOM     13  C   UNL     1      -3.435   2.744   0.000  1.00  0.00     0.278 C 
ENDBRANCH   1  12
BRANCH   6  14
ATOM     14  O   UNL     1      -2.948  -1.730   0.000  1.00  0.00    -0.493 OA
ATOM     15  C   UNL     1      -2.785  -3.221   0.000  1.00  0.00     0.278 C 
ENDBRANCH   6  14
TORSDOF 2
