REMARK SMILES COc1cc([C@H]2CC(=O)c3c(O)c(C)c(O)c(C)c3O2)ccc1O
REMARK SMILES IDX 6 1 7 2 8 3 9 4 10 5 11 6 13 7 14 8 15 9 17 10 18 11 19 12
REMARK SMILES IDX 20 13 5 14 3 15 4 16 23 17 22 18 21 19 2 20 1 21 24 22 12 24
REMARK SMILES IDX 16 26
REMARK H PARENT 24 23 12 25 16 27
ROOT
ATOM      1  C   UNL     1      -0.719  -0.728   0.000  1.00  0.00     0.211 C 
ATOM      2  C   UNL     1      -0.025  -2.058   0.000  1.00  0.00     0.131 C 
ATOM      3  C   UNL     1       1.473  -2.122   0.000  1.00  0.00     0.174 C 
ATOM      4  O   UNL     1       2.167  -3.451   0.000  1.00  0.00    -0.294 OA
ATOM      5  C   UNL     1       2.278  -0.856   0.000  1.00  0.00     0.102 A 
ATOM      6  C   UNL     1       3.777  -0.920   0.000  1.00  0.00     0.136 A 
ATOM      7  C   UNL     1       4.581   0.346   0.000  1.00  0.00     0.034 A 
ATOM      8  C   UNL     1       6.080   0.282   0.000  1.00  0.00     0.052 C 
ATOM      9  C   UNL     1       3.888   1.676   0.000  1.00  0.00     0.128 A 
ATOM     10  C   UNL     1       2.389   1.740   0.000  1.00  0.00     0.034 A 
ATOM     11  C   UNL     1       1.695   3.070   0.000  1.00  0.00     0.052 C 
ATOM     12  C   UNL     1       1.584   0.474   0.000  1.00  0.00     0.141 A 
ATOM     13  O   UNL     1       0.086   0.538   0.000  1.00  0.00    -0.484 OA
ENDROOT
BRANCH   1  14
ATOM     14  C   UNL     1      -2.218  -0.664   0.000  1.00  0.00    -0.003 A 
ATOM     15  C   UNL     1      -4.410   0.730   0.000  1.00  0.00     0.160 A 
ATOM     16  C   UNL     1      -2.912   0.666   0.000  1.00  0.00     0.058 A 
ATOM     17  C   UNL     1      -5.215  -0.536   0.000  1.00  0.00     0.157 A 
ATOM     18  C   UNL     1      -4.521  -1.866   0.000  1.00  0.00     0.050 A 
ATOM     19  C   UNL     1      -3.022  -1.930   0.000  1.00  0.00     0.011 A 
BRANCH  15  20
ATOM     20  O   UNL     1      -5.104   2.060   0.000  1.00  0.00    -0.493 OA
ATOM     21  C   UNL     1      -4.300   3.326   0.000  1.00  0.00     0.278 C 
ENDBRANCH  15  20
BRANCH  17  22
ATOM     22  O   UNL     1      -6.714  -0.472   0.000  1.00  0.00    -0.504 OA
ATOM     23  H   UNL     1       0.000   0.000   0.000  1.00  0.00     0.293 HD
ENDBRANCH  17  22
ENDBRANCH   1  14
BRANCH   6  24
ATOM     24  O   UNL     1       4.471  -2.249   0.000  1.00  0.00    -0.507 OA
ATOM     25  H   UNL     1       0.000   0.000   0.000  1.00  0.00     0.293 HD
ENDBRANCH   6  24
BRANCH   9  26
ATOM     26  O   UNL     1       4.692   2.942   0.000  1.00  0.00    -0.507 OA
ATOM     27  H   UNL     1       0.000   0.000   0.000  1.00  0.00     0.293 HD
ENDBRANCH   9  26
TORSDOF 5
