REMARK SMILES CC1(C)[C@@H]2CC[C@@]1(C)[C@H](O)C2
REMARK SMILES IDX 1 1 2 2 3 3 4 4 5 5 6 6 7 7 8 8 9 9 11 10 10 11
REMARK H PARENT 10 12
ROOT
ATOM      1  C   UNL     1      -0.972  -1.527   0.000  1.00  0.00     0.012 C 
ATOM      2  C   UNL     1       0.024  -0.405   0.000  1.00  0.00    -0.025 C 
ATOM      3  C   UNL     1      -1.462  -0.207   0.000  1.00  0.00     0.012 C 
ATOM      4  C   UNL     1       1.274  -1.236   0.000  1.00  0.00    -0.002 C 
ATOM      5  C   UNL     1       2.449  -0.304   0.000  1.00  0.00     0.005 C 
ATOM      6  C   UNL     1       1.927   1.102   0.000  1.00  0.00     0.010 C 
ATOM      7  C   UNL     1       0.428   1.039   0.000  1.00  0.00    -0.001 C 
ATOM      8  C   UNL     1      -0.503   2.215   0.000  1.00  0.00     0.015 C 
ATOM      9  C   UNL     1      -0.748   0.108   0.000  1.00  0.00     0.121 C 
ATOM     10  C   UNL     1      -0.225  -1.298   0.000  1.00  0.00     0.036 C 
ENDROOT
BRANCH   9  11
ATOM     11  O   UNL     1      -2.192   0.512   0.000  1.00  0.00    -0.393 OA
ATOM     12  H   UNL     1       0.000   0.000   0.000  1.00  0.00     0.210 HD
ENDBRANCH   9  11
TORSDOF 1
