REMARK SMILES Cc1cc2cc(O)c(O)c(O)c2c(=O)o1
REMARK SMILES IDX 1 1 2 2 3 3 4 4 5 5 6 6 8 7 10 8 12 9 13 10 14 11 15 12 7 13
REMARK SMILES IDX 11 15 9 17
REMARK H PARENT 7 14 11 16 9 18
ROOT
ATOM      1  C   UNL     1       4.317  -1.374   0.000  1.00  0.00     0.088 C 
ATOM      2  C   UNL     1       2.949  -0.758   0.000  1.00  0.00     0.105 A 
ATOM      3  C   UNL     1       1.732  -1.635   0.000  1.00  0.00     0.051 A 
ATOM      4  C   UNL     1       0.364  -1.019   0.000  1.00  0.00     0.000 A 
ATOM      5  C   UNL     1      -0.853  -1.895   0.000  1.00  0.00     0.059 A 
ATOM      6  C   UNL     1      -2.221  -1.279   0.000  1.00  0.00     0.162 A 
ATOM      7  C   UNL     1      -2.372   0.213   0.000  1.00  0.00     0.201 A 
ATOM      8  C   UNL     1      -1.154   1.090   0.000  1.00  0.00     0.176 A 
ATOM      9  C   UNL     1       0.213   0.474   0.000  1.00  0.00     0.113 A 
ATOM     10  C   UNL     1       1.431   1.350   0.000  1.00  0.00     0.347 A 
ATOM     11  O   UNL     1       1.280   2.843   0.000  1.00  0.00    -0.246 OA
ATOM     12  O   UNL     1       2.798   0.735   0.000  1.00  0.00    -0.428 OA
ENDROOT
BRANCH   6  13
ATOM     13  O   UNL     1      -3.438  -2.156   0.000  1.00  0.00    -0.504 OA
ATOM     14  H   UNL     1       0.000   0.000   0.000  1.00  0.00     0.293 HD
ENDBRANCH   6  13
BRANCH   8  15
ATOM     15  O   UNL     1      -1.305   2.582   0.000  1.00  0.00    -0.504 OA
ATOM     16  H   UNL     1       0.000   0.000   0.000  1.00  0.00     0.293 HD
ENDBRANCH   8  15
BRANCH   7  17
ATOM     17  O   UNL     1      -3.739   0.829   0.000  1.00  0.00    -0.502 OA
ATOM     18  H   UNL     1       0.000   0.000   0.000  1.00  0.00     0.293 HD
ENDBRANCH   7  17
TORSDOF 3
