REMARK SMILES COc1ccc(C(=O)O)cc1CC=C(C)CCC=C(C)C
REMARK SMILES IDX 13 1 12 2 11 3 3 4 4 5 5 6 10 7 6 8 2 9 1 10 7 11 8 12 9 13
REMARK SMILES IDX 14 15 15 16 16 17 17 18 18 19 19 20 20 21 21 22
REMARK H PARENT 9 14
ROOT
ATOM      1  C   UNL     1       0.567  -1.411   0.000  1.00  0.00    -0.023 C 
ENDROOT
BRANCH   1   2
ATOM      2  C   UNL     1      -0.211  -0.128   0.000  1.00  0.00     0.066 C 
BRANCH   2   3
ATOM      3  C   UNL     1      -1.711  -0.162   0.000  1.00  0.00    -0.001 A 
ATOM      4  C   UNL     1      -2.432  -1.477   0.000  1.00  0.00     0.122 A 
ATOM      5  C   UNL     1      -3.932  -1.510   0.000  1.00  0.00     0.047 A 
ATOM      6  C   UNL     1      -4.710  -0.228   0.000  1.00  0.00     0.019 A 
ATOM      7  C   UNL     1      -2.490   1.121   0.000  1.00  0.00     0.023 A 
ATOM      8  C   UNL     1      -3.989   1.087   0.000  1.00  0.00     0.060 A 
BRANCH   4   9
ATOM      9  O   UNL     1      -1.654  -2.759   0.000  1.00  0.00    -0.496 OA
ATOM     10  C   UNL     1      -2.375  -4.074   0.000  1.00  0.00     0.278 C 
ENDBRANCH   4   9
BRANCH   8  11
ATOM     11  C   UNL     1      -4.768   2.370   0.000  1.00  0.00     0.335 C 
ATOM     12  O   UNL     1      -6.267   2.337   0.000  1.00  0.00    -0.246 OA
BRANCH  11  13
ATOM     13  O   UNL     1      -4.047   3.685   0.000  1.00  0.00    -0.478 OA
ATOM     14  H   UNL     1       0.000   0.000   0.000  1.00  0.00     0.297 HD
ENDBRANCH  11  13
ENDBRANCH   8  11
ENDBRANCH   2   3
ENDBRANCH   1   2
BRANCH   1  15
ATOM     15  C   UNL     1       2.067  -1.377   0.000  1.00  0.00    -0.077 C 
ATOM     16  C   UNL     1       2.845  -2.660   0.000  1.00  0.00     0.039 C 
BRANCH  15  17
ATOM     17  C   UNL     1       2.788  -0.062   0.000  1.00  0.00     0.034 C 
BRANCH  17  18
ATOM     18  C   UNL     1       4.287  -0.029   0.000  1.00  0.00     0.032 C 
BRANCH  18  19
ATOM     19  C   UNL     1       5.008   1.286   0.000  1.00  0.00    -0.028 C 
BRANCH  19  20
ATOM     20  C   UNL     1       6.508   1.319   0.000  1.00  0.00    -0.080 C 
ATOM     21  C   UNL     1       7.229   2.635   0.000  1.00  0.00     0.039 C 
ATOM     22  C   UNL     1       7.287   0.037   0.000  1.00  0.00     0.039 C 
ENDBRANCH  19  20
ENDBRANCH  18  19
ENDBRANCH  17  18
ENDBRANCH  15  17
ENDBRANCH   1  15
TORSDOF 10
