REMARK SMILES CC=C(C)C(=O)O[C@@H]1C[C@@]2(C)O[C@@]3(CC2=O)C(CO)=C[C@@H](O)[C@H]13
REMARK SMILES IDX 7 1 5 2 6 3 3 4 4 5 2 6 1 7 8 8 9 9 23 10 10 11 21 12 13 13
REMARK SMILES IDX 12 14 15 15 20 16 14 17 17 18 11 19 16 20 22 21 18 23 19 24
REMARK H PARENT 22 22 19 25
ROOT
ATOM      1  O   UNL     1       1.910  -0.356   0.000  1.00  0.00    -0.458 OA
ENDROOT
BRANCH   1   2
ATOM      2  C   UNL     1       3.087   0.573   0.000  1.00  0.00     0.333 C 
ATOM      3  O   UNL     1       2.871   2.058   0.000  1.00  0.00    -0.247 OA
BRANCH   2   4
ATOM      4  C   UNL     1       4.481   0.019   0.000  1.00  0.00     0.030 C 
ATOM      5  C   UNL     1       5.658   0.948   0.000  1.00  0.00     0.052 C 
BRANCH   4   6
ATOM      6  C   UNL     1       4.697  -1.466   0.000  1.00  0.00    -0.020 C 
ATOM      7  C   UNL     1       6.091  -2.020   0.000  1.00  0.00     0.036 C 
ENDBRANCH   4   6
ENDBRANCH   2   4
ENDBRANCH   1   2
BRANCH   1   8
ATOM      8  C   UNL     1       0.516   0.198   0.000  1.00  0.00     0.189 C 
ATOM      9  C   UNL     1       0.300   1.682   0.000  1.00  0.00     0.089 C 
ATOM     10  C   UNL     1      -0.661  -0.732   0.000  1.00  0.00     0.100 C 
ATOM     11  C   UNL     1      -1.157   2.078   0.000  1.00  0.00     0.128 C 
ATOM     12  C   UNL     1      -0.757  -2.228   0.000  1.00  0.00     0.147 C 
ATOM     13  C   UNL     1      -2.054  -0.177   0.000  1.00  0.00     0.109 C 
ATOM     14  O   UNL     1      -0.787   0.625   0.000  1.00  0.00    -0.355 OA
ATOM     15  C   UNL     1      -2.654   2.175   0.000  1.00  0.00     0.167 C 
ATOM     16  C   UNL     1      -2.211  -2.599   0.000  1.00  0.00     0.009 C 
ATOM     17  C   UNL     1      -3.209   0.781   0.000  1.00  0.00     0.119 C 
ATOM     18  C   UNL     1      -3.013  -1.331   0.000  1.00  0.00    -0.014 C 
ATOM     19  C   UNL     1      -0.199   3.232   0.000  1.00  0.00     0.051 C 
ATOM     20  O   UNL     1      -3.456   3.443   0.000  1.00  0.00    -0.296 OA
BRANCH  12  21
ATOM     21  O   UNL     1       0.397  -3.187   0.000  1.00  0.00    -0.388 OA
ATOM     22  H   UNL     1       0.000   0.000   0.000  1.00  0.00     0.211 HD
ENDBRANCH  12  21
BRANCH  18  23
ATOM     23  C   UNL     1      -4.510  -1.234   0.000  1.00  0.00     0.190 C 
BRANCH  23  24
ATOM     24  O   UNL     1      -5.342  -2.482   0.000  1.00  0.00    -0.392 OA
ATOM     25  H   UNL     1       0.000   0.000   0.000  1.00  0.00     0.211 HD
ENDBRANCH  23  24
ENDBRANCH  18  23
ENDBRANCH   1   8
TORSDOF 7
