REMARK SMILES COc1cc2oc(-c3ccc(O)c(O)c3)cc(=O)c2c(O)c1O[C@@H]1O[C@H](CO)[C@@H](O)[C@H](O)[C@H]1O
REMARK SMILES IDX 23 1 22 2 3 3 4 4 5 5 20 6 19 7 6 8 17 9 7 10 16 11 18 12
REMARK SMILES IDX 2 13 1 14 21 15 8 17 9 18 15 19 10 20 13 21 11 22 14 23
REMARK SMILES IDX 12 25 24 27 25 28 33 29 26 30 31 31 29 32 34 33 27 35 28 36
REMARK SMILES IDX 32 38 30 40
REMARK H PARENT 21 16 14 24 12 26 34 34 28 37 32 39 30 41
ROOT
ATOM      1  O   UNL     1      -2.877  -1.744   0.000  1.00  0.00    -0.454 OA
ENDROOT
BRANCH   1   2
ATOM      2  C   UNL     1      -1.475  -1.213   0.000  1.00  0.00     0.207 A 
ATOM      3  C   UNL     1      -1.234   0.268   0.000  1.00  0.00     0.168 A 
ATOM      4  C   UNL     1       0.169   0.799   0.000  1.00  0.00     0.098 A 
ATOM      5  C   UNL     1       1.331  -0.149   0.000  1.00  0.00     0.146 A 
ATOM      6  C   UNL     1      -0.313  -2.162   0.000  1.00  0.00     0.177 A 
ATOM      7  C   UNL     1       1.089  -1.630   0.000  1.00  0.00     0.111 A 
ATOM      8  O   UNL     1       2.733   0.382   0.000  1.00  0.00    -0.456 OA
ATOM      9  C   UNL     1       2.251  -2.579   0.000  1.00  0.00     0.197 A 
ATOM     10  C   UNL     1       3.895  -0.567   0.000  1.00  0.00     0.138 A 
ATOM     11  C   UNL     1       3.654  -2.047   0.000  1.00  0.00     0.100 A 
ATOM     12  O   UNL     1       2.010  -4.059   0.000  1.00  0.00    -0.289 OA
BRANCH   3  13
ATOM     13  O   UNL     1      -2.396   1.217   0.000  1.00  0.00    -0.493 OA
ATOM     14  C   UNL     1      -2.155   2.697   0.000  1.00  0.00     0.278 C 
ENDBRANCH   3  13
BRANCH   6  15
ATOM     15  O   UNL     1      -0.554  -3.642   0.000  1.00  0.00    -0.504 OA
ATOM     16  H   UNL     1       0.000   0.000   0.000  1.00  0.00     0.293 HD
ENDBRANCH   6  15
BRANCH  10  17
ATOM     17  C   UNL     1       5.298  -0.035   0.000  1.00  0.00     0.021 A 
ATOM     18  C   UNL     1       6.459  -0.984   0.000  1.00  0.00     0.016 A 
ATOM     19  C   UNL     1       5.538   1.445   0.000  1.00  0.00     0.062 A 
ATOM     20  C   UNL     1       7.862  -0.453   0.000  1.00  0.00     0.051 A 
ATOM     21  C   UNL     1       6.941   1.977   0.000  1.00  0.00     0.158 A 
ATOM     22  C   UNL     1       8.103   1.028   0.000  1.00  0.00     0.157 A 
BRANCH  21  23
ATOM     23  O   UNL     1       7.182   3.457   0.000  1.00  0.00    -0.504 OA
ATOM     24  H   UNL     1       0.000   0.000   0.000  1.00  0.00     0.293 HD
ENDBRANCH  21  23
BRANCH  22  25
ATOM     25  O   UNL     1       9.505   1.559   0.000  1.00  0.00    -0.504 OA
ATOM     26  H   UNL     1       0.000   0.000   0.000  1.00  0.00     0.293 HD
ENDBRANCH  22  25
ENDBRANCH  10  17
ENDBRANCH   1   2
BRANCH   1  27
ATOM     27  C   UNL     1      -4.039  -0.795   0.000  1.00  0.00     0.339 C 
ATOM     28  O   UNL     1      -3.798   0.685   0.000  1.00  0.00    -0.332 OA
ATOM     29  C   UNL     1      -5.442  -1.327   0.000  1.00  0.00     0.214 C 
ATOM     30  C   UNL     1      -4.960   1.634   0.000  1.00  0.00     0.179 C 
ATOM     31  C   UNL     1      -6.604  -0.378   0.000  1.00  0.00     0.180 C 
ATOM     32  C   UNL     1      -6.362   1.103   0.000  1.00  0.00     0.177 C 
BRANCH  29  33
ATOM     33  O   UNL     1      -5.683  -2.807   0.000  1.00  0.00    -0.384 OA
ATOM     34  H   UNL     1       0.000   0.000   0.000  1.00  0.00     0.211 HD
ENDBRANCH  29  33
BRANCH  30  35
ATOM     35  C   UNL     1      -4.719   3.115   0.000  1.00  0.00     0.191 C 
BRANCH  35  36
ATOM     36  O   UNL     1      -5.880   4.064   0.000  1.00  0.00    -0.394 OA
ATOM     37  H   UNL     1       0.000   0.000   0.000  1.00  0.00     0.210 HD
ENDBRANCH  35  36
ENDBRANCH  30  35
BRANCH  31  38
ATOM     38  O   UNL     1      -8.006  -0.909   0.000  1.00  0.00    -0.387 OA
ATOM     39  H   UNL     1       0.000   0.000   0.000  1.00  0.00     0.211 HD
ENDBRANCH  31  38
BRANCH  32  40
ATOM     40  O   UNL     1      -7.524   2.052   0.000  1.00  0.00    -0.387 OA
ATOM     41  H   UNL     1       0.000   0.000   0.000  1.00  0.00     0.211 HD
ENDBRANCH  32  40
ENDBRANCH   1  27
TORSDOF 12
