REMARK SMILES O=c1c(O[C@@H]2O[C@H](CO)[C@H](O)[C@H](O)[C@H]2O)c(-c2ccc(O)cc2)oc2cc(O)cc(O)c12
REMARK SMILES IDX 4 1 3 2 2 3 32 4 16 5 30 6 25 7 24 8 29 9 26 10 27 11 1 12
REMARK SMILES IDX 17 13 18 14 23 15 19 16 22 17 20 18 21 19 31 21 28 23 5 25
REMARK SMILES IDX 6 26 14 27 7 28 12 29 10 30 15 31 8 33 9 34 13 36 11 38
REMARK H PARENT 21 20 31 22 28 24 15 32 9 35 13 37 11 39
ROOT
ATOM      1  O   UNL     1      -0.211  -1.325   0.000  1.00  0.00    -0.454 OA
ENDROOT
BRANCH   1   2
ATOM      2  C   UNL     1       0.672  -0.112   0.000  1.00  0.00     0.214 A 
ATOM      3  C   UNL     1       0.062   1.259   0.000  1.00  0.00     0.239 A 
ATOM      4  C   UNL     1       0.945   2.472   0.000  1.00  0.00     0.111 A 
ATOM      5  C   UNL     1       2.163  -0.269   0.000  1.00  0.00     0.180 A 
ATOM      6  C   UNL     1       0.335   3.843   0.000  1.00  0.00     0.134 A 
ATOM      7  C   UNL     1       2.436   2.314   0.000  1.00  0.00     0.146 A 
ATOM      8  O   UNL     1       3.046   0.944   0.000  1.00  0.00    -0.452 OA
ATOM      9  C   UNL     1       1.217   5.056   0.000  1.00  0.00     0.093 A 
ATOM     10  C   UNL     1       3.318   3.528   0.000  1.00  0.00     0.094 A 
ATOM     11  C   UNL     1       2.709   4.898   0.000  1.00  0.00     0.123 A 
ATOM     12  O   UNL     1      -1.429   1.416   0.000  1.00  0.00    -0.285 OA
BRANCH   5  13
ATOM     13  C   UNL     1       2.773  -1.640   0.000  1.00  0.00     0.021 A 
ATOM     14  C   UNL     1       1.891  -2.853   0.000  1.00  0.00     0.016 A 
ATOM     15  C   UNL     1       4.264  -1.797   0.000  1.00  0.00     0.016 A 
ATOM     16  C   UNL     1       2.500  -4.224   0.000  1.00  0.00     0.047 A 
ATOM     17  C   UNL     1       4.874  -3.168   0.000  1.00  0.00     0.047 A 
ATOM     18  C   UNL     1       3.992  -4.381   0.000  1.00  0.00     0.115 A 
BRANCH  18  19
ATOM     19  O   UNL     1       4.601  -5.752   0.000  1.00  0.00    -0.508 OA
ATOM     20  H   UNL     1       0.000   0.000   0.000  1.00  0.00     0.293 HD
ENDBRANCH  18  19
ENDBRANCH   5  13
BRANCH   6  21
ATOM     21  O   UNL     1      -1.157   4.000   0.000  1.00  0.00    -0.507 OA
ATOM     22  H   UNL     1       0.000   0.000   0.000  1.00  0.00     0.293 HD
ENDBRANCH   6  21
BRANCH  11  23
ATOM     23  O   UNL     1       3.591   6.111   0.000  1.00  0.00    -0.508 OA
ATOM     24  H   UNL     1       0.000   0.000   0.000  1.00  0.00     0.293 HD
ENDBRANCH  11  23
ENDBRANCH   1   2
BRANCH   1  25
ATOM     25  C   UNL     1      -1.702  -1.167   0.000  1.00  0.00     0.339 C 
ATOM     26  O   UNL     1      -2.312   0.203   0.000  1.00  0.00    -0.332 OA
ATOM     27  C   UNL     1      -2.584  -2.381   0.000  1.00  0.00     0.214 C 
ATOM     28  C   UNL     1      -3.804   0.361   0.000  1.00  0.00     0.179 C 
ATOM     29  C   UNL     1      -4.076  -2.223   0.000  1.00  0.00     0.180 C 
ATOM     30  C   UNL     1      -4.686  -0.852   0.000  1.00  0.00     0.177 C 
BRANCH  27  31
ATOM     31  O   UNL     1      -1.975  -3.751   0.000  1.00  0.00    -0.384 OA
ATOM     32  H   UNL     1       0.000   0.000   0.000  1.00  0.00     0.211 HD
ENDBRANCH  27  31
BRANCH  28  33
ATOM     33  C   UNL     1      -4.413   1.731   0.000  1.00  0.00     0.191 C 
BRANCH  33  34
ATOM     34  O   UNL     1      -5.905   1.889   0.000  1.00  0.00    -0.394 OA
ATOM     35  H   UNL     1       0.000   0.000   0.000  1.00  0.00     0.210 HD
ENDBRANCH  33  34
ENDBRANCH  28  33
BRANCH  29  36
ATOM     36  O   UNL     1      -4.958  -3.436   0.000  1.00  0.00    -0.387 OA
ATOM     37  H   UNL     1       0.000   0.000   0.000  1.00  0.00     0.211 HD
ENDBRANCH  29  36
BRANCH  30  38
ATOM     38  O   UNL     1      -6.177  -0.695   0.000  1.00  0.00    -0.387 OA
ATOM     39  H   UNL     1       0.000   0.000   0.000  1.00  0.00     0.211 HD
ENDBRANCH  30  38
ENDBRANCH   1  25
TORSDOF 11
