REMARK SMILES Cc1cc2c(cc1O)[C@H](C)CC[C@H]2C(C)C
REMARK SMILES IDX 1 1 2 2 3 3 4 4 5 5 6 6 7 7 9 8 10 9 11 10 12 11 13 12 8 13
REMARK SMILES IDX 14 15 15 16 16 17
REMARK H PARENT 8 14
ROOT
ATOM      1  C   UNL     1       2.795  -2.683   0.000  1.00  0.00     0.048 C 
ATOM      2  C   UNL     1       2.009  -1.406   0.000  1.00  0.00    -0.009 A 
ATOM      3  C   UNL     1       0.509  -1.448   0.000  1.00  0.00     0.011 A 
ATOM      4  C   UNL     1      -0.277  -0.170   0.000  1.00  0.00    -0.041 A 
ATOM      5  C   UNL     1       0.437   1.149   0.000  1.00  0.00    -0.038 A 
ATOM      6  C   UNL     1       1.936   1.191   0.000  1.00  0.00     0.050 A 
ATOM      7  C   UNL     1       2.722  -0.086   0.000  1.00  0.00     0.118 A 
ATOM      8  C   UNL     1      -0.349   2.427   0.000  1.00  0.00     0.016 C 
ATOM      9  C   UNL     1       0.364   3.746   0.000  1.00  0.00     0.013 C 
ATOM     10  C   UNL     1      -1.849   2.385   0.000  1.00  0.00     0.009 C 
ATOM     11  C   UNL     1      -2.562   1.066   0.000  1.00  0.00     0.009 C 
ATOM     12  C   UNL     1      -1.776  -0.212   0.000  1.00  0.00     0.022 C 
ENDROOT
BRANCH   7  13
ATOM     13  O   UNL     1       4.222  -0.045   0.000  1.00  0.00    -0.508 OA
ATOM     14  H   UNL     1       0.000   0.000   0.000  1.00  0.00     0.293 HD
ENDBRANCH   7  13
BRANCH  12  15
ATOM     15  C   UNL     1      -2.490  -1.532   0.000  1.00  0.00    -0.010 C 
ATOM     16  C   UNL     1      -3.989  -1.573   0.000  1.00  0.00     0.008 C 
ATOM     17  C   UNL     1      -1.704  -2.809   0.000  1.00  0.00     0.008 C 
ENDBRANCH  12  15
TORSDOF 2
