REMARK SMILES C=Cc1ccc(O)c(C(=O)C=C(C)C)c1
REMARK SMILES IDX 9 1 10 2 8 3 3 4 4 5 15 6 5 7 6 8 2 9 1 10 7 11 11 13 12 14
REMARK SMILES IDX 13 15 14 16
REMARK H PARENT 7 12
ROOT
ATOM      1  C   UNL     1       1.369   0.367   0.000  1.00  0.00     0.189 C 
ATOM      2  O   UNL     1       2.182   1.628   0.000  1.00  0.00    -0.289 OA
ENDROOT
BRANCH   1   3
ATOM      3  C   UNL     1      -0.129   0.440   0.000  1.00  0.00     0.064 A 
ATOM      4  C   UNL     1      -2.439  -0.749   0.000  1.00  0.00    -0.025 A 
ATOM      5  C   UNL     1      -3.125   0.585   0.000  1.00  0.00     0.012 A 
ATOM      6  C   UNL     1      -0.941  -0.821   0.000  1.00  0.00     0.024 A 
ATOM      7  C   UNL     1      -2.313   1.846   0.000  1.00  0.00     0.047 A 
ATOM      8  C   UNL     1      -0.815   1.774   0.000  1.00  0.00     0.126 A 
BRANCH   4   9
ATOM      9  C   UNL     1      -3.251  -2.010   0.000  1.00  0.00     0.000 C 
ATOM     10  C   UNL     1      -4.750  -1.937   0.000  1.00  0.00     0.009 C 
ENDBRANCH   4   9
BRANCH   8  11
ATOM     11  O   UNL     1      -0.003   3.035   0.000  1.00  0.00    -0.507 OA
ATOM     12  H   UNL     1       0.000   0.000   0.000  1.00  0.00     0.293 HD
ENDBRANCH   8  11
ENDBRANCH   1   3
BRANCH   1  13
ATOM     13  C   UNL     1       2.055  -0.967   0.000  1.00  0.00     0.051 C 
BRANCH  13  14
ATOM     14  C   UNL     1       3.554  -1.040   0.000  1.00  0.00    -0.073 C 
ATOM     15  C   UNL     1       4.240  -2.373   0.000  1.00  0.00     0.039 C 
ATOM     16  C   UNL     1       4.366   0.222   0.000  1.00  0.00     0.039 C 
ENDBRANCH  13  14
ENDBRANCH   1  13
TORSDOF 5
