REMARK SMILES CC(C)=CCc1c(O)cc2c(c1O)C(=O)C[C@@](C)(c1ccccc1)O2
REMARK SMILES IDX 5 1 4 2 2 3 1 4 3 5 6 6 7 7 12 8 9 9 11 10 10 11 14 12 25 13
REMARK SMILES IDX 16 14 17 15 15 16 18 17 8 18 13 20 19 22 20 23 24 24 21 25
REMARK SMILES IDX 23 26 22 27
REMARK H PARENT 8 19 13 21
ROOT
ATOM      1  C   UNL     1      -3.967  -0.981   0.000  1.00  0.00     0.070 C 
ENDROOT
BRANCH   1   2
ATOM      2  C   UNL     1      -4.848   0.233   0.000  1.00  0.00    -0.023 C 
BRANCH   2   3
ATOM      3  C   UNL     1      -6.340   0.077   0.000  1.00  0.00    -0.080 C 
ATOM      4  C   UNL     1      -7.221   1.291   0.000  1.00  0.00     0.039 C 
ATOM      5  C   UNL     1      -6.951  -1.293   0.000  1.00  0.00     0.039 C 
ENDBRANCH   2   3
ENDBRANCH   1   2
BRANCH   1   6
ATOM      6  C   UNL     1      -2.475  -0.825   0.000  1.00  0.00     0.040 A 
ATOM      7  C   UNL     1      -1.594  -2.039   0.000  1.00  0.00     0.126 A 
ATOM      8  C   UNL     1      -1.864   0.545   0.000  1.00  0.00     0.137 A 
ATOM      9  C   UNL     1      -0.102  -1.883   0.000  1.00  0.00     0.094 A 
ATOM     10  C   UNL     1      -0.372   0.701   0.000  1.00  0.00     0.102 A 
ATOM     11  C   UNL     1       0.509  -0.513   0.000  1.00  0.00     0.138 A 
ATOM     12  C   UNL     1       0.238   2.071   0.000  1.00  0.00     0.174 C 
ATOM     13  O   UNL     1       2.000  -0.357   0.000  1.00  0.00    -0.481 OA
ATOM     14  C   UNL     1       1.730   2.227   0.000  1.00  0.00     0.134 C 
ATOM     15  C   UNL     1       2.611   1.013   0.000  1.00  0.00     0.138 C 
ATOM     16  O   UNL     1      -0.642   3.285   0.000  1.00  0.00    -0.294 OA
ATOM     17  C   UNL     1       3.654   2.091   0.000  1.00  0.00     0.062 C 
BRANCH   7  18
ATOM     18  O   UNL     1      -2.205  -3.409   0.000  1.00  0.00    -0.507 OA
ATOM     19  H   UNL     1       0.000   0.000   0.000  1.00  0.00     0.293 HD
ENDBRANCH   7  18
BRANCH   8  20
ATOM     20  O   UNL     1      -2.745   1.759   0.000  1.00  0.00    -0.507 OA
ATOM     21  H   UNL     1       0.000   0.000   0.000  1.00  0.00     0.293 HD
ENDBRANCH   8  20
BRANCH  15  22
ATOM     22  C   UNL     1       3.854   0.173   0.000  1.00  0.00    -0.004 A 
ATOM     23  C   UNL     1       3.749  -1.323   0.000  1.00  0.00     0.008 A 
ATOM     24  C   UNL     1       5.203   0.830   0.000  1.00  0.00     0.008 A 
ATOM     25  C   UNL     1       4.992  -2.162   0.000  1.00  0.00     0.000 A 
ATOM     26  C   UNL     1       6.446  -0.009   0.000  1.00  0.00     0.000 A 
ATOM     27  C   UNL     1       6.340  -1.506   0.000  1.00  0.00     0.000 A 
ENDBRANCH  15  22
ENDBRANCH   1   6
TORSDOF 6
