REMARK SMILES Cc1ccc(C)c2c1C[C@H](C(C)(C)O)[C@@H](O)C2=O
REMARK SMILES IDX 1 1 2 2 3 3 4 4 5 5 6 6 7 7 8 8 9 9 10 10 15 11 17 12 18 13
REMARK SMILES IDX 11 14 12 15 13 16 14 17 16 19
REMARK H PARENT 14 18 16 20
ROOT
ATOM      1  C   UNL     1      -1.524  -3.408   0.000  1.00  0.00     0.044 C 
ATOM      2  C   UNL     1      -1.926  -1.963   0.000  1.00  0.00    -0.047 A 
ATOM      3  C   UNL     1      -3.378  -1.589   0.000  1.00  0.00     0.004 A 
ATOM      4  C   UNL     1      -3.780  -0.144   0.000  1.00  0.00     0.004 A 
ATOM      5  C   UNL     1      -2.730   0.927   0.000  1.00  0.00    -0.040 A 
ATOM      6  C   UNL     1      -3.132   2.372   0.000  1.00  0.00     0.045 C 
ATOM      7  C   UNL     1      -1.278   0.553   0.000  1.00  0.00     0.027 A 
ATOM      8  C   UNL     1      -0.875  -0.892   0.000  1.00  0.00    -0.033 A 
ATOM      9  C   UNL     1       0.577  -1.267   0.000  1.00  0.00     0.046 C 
ATOM     10  C   UNL     1       1.628  -0.196   0.000  1.00  0.00     0.061 C 
ATOM     11  C   UNL     1       1.226   1.249   0.000  1.00  0.00     0.192 C 
ATOM     12  C   UNL     1      -0.227   1.624   0.000  1.00  0.00     0.192 C 
ATOM     13  O   UNL     1      -0.629   3.069   0.000  1.00  0.00    -0.291 OA
ENDROOT
BRANCH  10  14
ATOM     14  C   UNL     1       3.080  -0.570   0.000  1.00  0.00     0.065 C 
ATOM     15  C   UNL     1       3.454   0.882   0.000  1.00  0.00     0.042 C 
ATOM     16  C   UNL     1       2.706  -2.023   0.000  1.00  0.00     0.042 C 
BRANCH  14  17
ATOM     17  O   UNL     1       4.533  -0.944   0.000  1.00  0.00    -0.390 OA
ATOM     18  H   UNL     1       0.000   0.000   0.000  1.00  0.00     0.211 HD
ENDBRANCH  14  17
ENDBRANCH  10  14
BRANCH  11  19
ATOM     19  O   UNL     1       2.276   2.320   0.000  1.00  0.00    -0.385 OA
ATOM     20  H   UNL     1       0.000   0.000   0.000  1.00  0.00     0.211 HD
ENDBRANCH  11  19
TORSDOF 3
