REMARK SMILES CCCCO[C@@]1(CO)O[C@H](CO)[C@@H](O)[C@@H]1O
REMARK SMILES IDX 5 1 4 2 3 3 2 4 1 5 6 6 9 7 15 8 10 9 13 10 7 11 8 12 16 14
REMARK SMILES IDX 11 16 12 17 14 19
REMARK H PARENT 8 13 16 15 12 18 14 20
ROOT
ATOM      1  O   UNL     1      -0.971   0.494   0.000  1.00  0.00    -0.346 OA
ENDROOT
BRANCH   1   2
ATOM      2  C   UNL     1      -2.217  -0.341   0.000  1.00  0.00     0.164 C 
BRANCH   2   3
ATOM      3  C   UNL     1      -3.563   0.322   0.000  1.00  0.00     0.028 C 
BRANCH   3   4
ATOM      4  C   UNL     1      -4.810  -0.513   0.000  1.00  0.00    -0.001 C 
ATOM      5  C   UNL     1      -6.155   0.149   0.000  1.00  0.00     0.004 C 
ENDBRANCH   3   4
ENDBRANCH   2   3
ENDBRANCH   1   2
BRANCH   1   6
ATOM      6  C   UNL     1       0.375  -0.168   0.000  1.00  0.00     0.221 C 
ATOM      7  O   UNL     1       1.554  -1.096   0.000  1.00  0.00    -0.337 OA
ATOM      8  C   UNL     1       0.893   1.240   0.000  1.00  0.00     0.207 C 
ATOM      9  C   UNL     1       2.800  -0.261   0.000  1.00  0.00     0.179 C 
ATOM     10  C   UNL     1       2.392   1.182   0.000  1.00  0.00     0.180 C 
BRANCH   6  11
ATOM     11  C   UNL     1      -0.424  -1.438   0.000  1.00  0.00     0.224 C 
BRANCH  11  12
ATOM     12  O   UNL     1      -1.923  -1.380   0.000  1.00  0.00    -0.391 OA
ATOM     13  H   UNL     1       0.000   0.000   0.000  1.00  0.00     0.210 HD
ENDBRANCH  11  12
ENDBRANCH   6  11
BRANCH   8  14
ATOM     14  O   UNL     1       0.059   2.486   0.000  1.00  0.00    -0.385 OA
ATOM     15  H   UNL     1       0.000   0.000   0.000  1.00  0.00     0.211 HD
ENDBRANCH   8  14
BRANCH   9  16
ATOM     16  C   UNL     1       4.208  -0.779   0.000  1.00  0.00     0.191 C 
BRANCH  16  17
ATOM     17  O   UNL     1       4.463  -2.257   0.000  1.00  0.00    -0.394 OA
ATOM     18  H   UNL     1       0.000   0.000   0.000  1.00  0.00     0.210 HD
ENDBRANCH  16  17
ENDBRANCH   9  16
BRANCH  10  19
ATOM     19  O   UNL     1       3.320   2.361   0.000  1.00  0.00    -0.387 OA
ATOM     20  H   UNL     1       0.000   0.000   0.000  1.00  0.00     0.211 HD
ENDBRANCH  10  19
ENDBRANCH   1   6
TORSDOF 10
