REMARK SMILES CC1=C[C@]2(O)C(=O)[C@H](C)C[C@@H]3[C@H](CC[C@]4(C)O[C@H]4[C@@H]2C1=O)C3(C)C
REMARK SMILES IDX 14 1 15 2 18 3 17 4 16 5 19 6 2 7 3 8 20 9 4 10 1 11 21 12
REMARK SMILES IDX 5 13 6 15 7 16 13 18 12 19 11 20 22 21 23 22 24 23 10 24
REMARK SMILES IDX 8 25 9 26
REMARK H PARENT 5 14
REMARK Flexibility Score:   26.900
ROOT
ATOM      1  C   UNL     1       1.434  -2.822   0.000  1.00  0.00     0.038 C 
ENDROOT
BRANCH   1   2
ATOM      2  C   UNL     1      -0.066  -2.789   0.000  1.00  0.00     0.093 C 
ATOM      3  C   UNL     1      -1.310  -1.951   0.000  1.00  0.00     0.165 C 
ATOM      4  O   UNL     1      -1.414  -3.447   0.000  1.00  0.00    -0.365 OA
ATOM      5  C   UNL     1       0.256  -4.254   0.000  1.00  0.00     0.045 C 
BRANCH   3   6
ATOM      6  C   UNL     1      -1.903  -0.574   0.000  1.00  0.00     0.136 C 
ATOM      7  C   UNL     1      -4.058   0.544   0.000  1.00  0.00    -0.008 C 
ATOM      8  C   UNL     1      -2.989   1.597   0.000  1.00  0.00     0.023 C 
ATOM      9  C   UNL     1      -3.387  -0.797   0.000  1.00  0.00     0.167 C 
ATOM     10  C   UNL     1      -1.658   0.906   0.000  1.00  0.00     0.154 C 
ATOM     11  C   UNL     1      -5.538   0.790   0.000  1.00  0.00     0.048 C 
ATOM     12  O   UNL     1      -4.077  -2.129   0.000  1.00  0.00    -0.294 OA
BRANCH  10  13
ATOM     13  O   UNL     1      -1.924   2.382   0.000  1.00  0.00    -0.377 OA
ATOM     14  H   UNL     1       0.000   0.000   0.000  1.00  0.00     0.212 HD
ENDBRANCH  10  13
BRANCH  10  15
ATOM     15  C   UNL     1      -0.651   2.018   0.000  1.00  0.00     0.171 CG0
ATOM     16  O   UNL     1      -1.435   3.297   0.000  1.00  0.00    -0.296 OA
ATOM     17  G   UNL     1       0.797   2.410   0.000  1.00  0.00     0.000 G0
ENDBRANCH  10  15
ENDBRANCH   3   6
ENDBRANCH   1   2
BRANCH   1  18
ATOM     18  C   UNL     1       2.713  -2.038   0.000  1.00  0.00     0.007 C 
BRANCH  18  19
ATOM     19  C   UNL     1       3.365  -0.687   0.000  1.00  0.00    -0.001 C 
ATOM     20  C   UNL     1       3.184   0.802   0.000  1.00  0.00    -0.001 C 
ATOM     21  C   UNL     1       4.564   0.214   0.000  1.00  0.00    -0.029 C 
ATOM     22  C   UNL     1       5.660  -0.810   0.000  1.00  0.00     0.011 C 
ATOM     23  C   UNL     1       5.382   1.471   0.000  1.00  0.00     0.011 C 
BRANCH  20  24
ATOM     24  C   UNL     1       2.226   1.956   0.000  1.00  0.00     0.015 C 
BRANCH  24  25
ATOM     25  C   UNL     1       0.797   2.410   0.000  1.00  0.00     0.057 CG0
ATOM     26  C   UNL     1       0.829   3.909   0.000  1.00  0.00     0.016 C 
ATOM     27  G   UNL     1      -0.651   2.018   0.000  1.00  0.00     0.000 G0
ENDBRANCH  24  25
ENDBRANCH  20  24
ENDBRANCH  18  19
ENDBRANCH   1  18
TORSDOF 1
