REMARK SMILES O=c1c2ccccc2nc2n1CCc1c-2[nH]c2cc(O)ccc12
REMARK SMILES IDX 1 1 2 2 3 3 4 4 5 5 6 6 7 7 8 8 9 9 10 10 15 11 14 12 13 13
REMARK SMILES IDX 12 14 11 15 23 16 22 17 21 18 19 19 18 20 17 21 16 22 20 24
REMARK H PARENT 16 23 20 25
ROOT
ATOM      1  O   UNL     1       3.497  -2.796   0.000  1.00  0.00    -0.269 OA
ATOM      2  C   UNL     1       2.866  -1.435   0.000  1.00  0.00     0.261 A 
ATOM      3  C   UNL     1       3.729  -0.208   0.000  1.00  0.00     0.066 A 
ATOM      4  C   UNL     1       5.223  -0.342   0.000  1.00  0.00     0.016 A 
ATOM      5  C   UNL     1       6.086   0.885   0.000  1.00  0.00     0.001 A 
ATOM      6  C   UNL     1       5.455   2.246   0.000  1.00  0.00     0.002 A 
ATOM      7  C   UNL     1       3.961   2.380   0.000  1.00  0.00     0.029 A 
ATOM      8  C   UNL     1       3.098   1.153   0.000  1.00  0.00     0.078 A 
ATOM      9  N   UNL     1       1.604   1.287   0.000  1.00  0.00    -0.228 NA
ATOM     10  C   UNL     1       0.741   0.060   0.000  1.00  0.00     0.160 A 
ATOM     11  C   UNL     1      -0.753   0.194   0.000  1.00  0.00     0.086 A 
ATOM     12  C   UNL     1      -1.616  -1.033   0.000  1.00  0.00    -0.010 A 
ATOM     13  C   UNL     1      -0.985  -2.393   0.000  1.00  0.00     0.060 C 
ATOM     14  C   UNL     1       0.509  -2.527   0.000  1.00  0.00     0.132 C 
ATOM     15  N   UNL     1       1.372  -1.301   0.000  1.00  0.00    -0.291 N 
ATOM     16  C   UNL     1      -3.049  -0.591   0.000  1.00  0.00     0.004 A 
ATOM     17  C   UNL     1      -4.337  -1.361   0.000  1.00  0.00     0.014 A 
ATOM     18  C   UNL     1      -5.647  -0.631   0.000  1.00  0.00     0.047 A 
ATOM     19  C   UNL     1      -5.670   0.869   0.000  1.00  0.00     0.117 A 
ATOM     20  C   UNL     1      -4.383   1.639   0.000  1.00  0.00     0.072 A 
ATOM     21  C   UNL     1      -3.072   0.909   0.000  1.00  0.00     0.050 A 
ATOM     22  N   UNL     1      -1.653   1.394   0.000  1.00  0.00    -0.352 N 
ATOM     23  H   UNL     1       0.000   0.000   0.000  1.00  0.00     0.167 HD
ENDROOT
BRANCH  19  24
ATOM     24  O   UNL     1      -6.980   1.599   0.000  1.00  0.00    -0.508 OA
ATOM     25  H   UNL     1       0.000   0.000   0.000  1.00  0.00     0.293 HD
ENDBRANCH  19  24
TORSDOF 1
