REMARK SMILES COC(=O)C[C@H]1[C@@](C)([C@@H](OC(C)=O)C(C)=O)C[C@]2(O)OC3=C(CC[C@]4(C)C3=CC(=O)O[C@H]4c3ccoc3)[C@]12C
REMARK SMILES IDX 6 1 7 2 8 3 17 4 18 5 20 6 21 7 22 8 23 9 24 10 25 11 26 12
REMARK SMILES IDX 27 13 28 14 29 15 30 16 31 17 32 18 38 19 39 20 5 21 3 22
REMARK SMILES IDX 4 23 2 24 1 25 9 26 10 27 11 28 12 29 13 30 14 31 15 32
REMARK SMILES IDX 16 33 19 34 33 36 37 37 34 38 36 39 35 40
REMARK H PARENT 19 35
ROOT
ATOM      1  C   UNL     1      -2.495   0.350   0.000  1.00  0.00     0.027 C 
ATOM      2  C   UNL     1      -3.432   1.521   0.000  1.00  0.00     0.023 C 
ATOM      3  C   UNL     1      -4.592   2.472   0.000  1.00  0.00     0.016 C 
ATOM      4  C   UNL     1      -2.607   2.774   0.000  1.00  0.00     0.092 C 
ATOM      5  C   UNL     1      -1.161   2.377   0.000  1.00  0.00     0.218 C 
ATOM      6  O   UNL     1       0.243   2.906   0.000  1.00  0.00    -0.461 OA
ATOM      7  C   UNL     1       1.180   1.735   0.000  1.00  0.00     0.127 C 
ATOM      8  C   UNL     1       0.355   0.482   0.000  1.00  0.00    -0.015 C 
ATOM      9  C   UNL     1       1.028  -0.859   0.000  1.00  0.00     0.037 C 
ATOM     10  C   UNL     1       2.526  -0.946   0.000  1.00  0.00     0.020 C 
ATOM     11  C   UNL     1       3.350   0.307   0.000  1.00  0.00     0.038 C 
ATOM     12  C   UNL     1       4.023  -1.034   0.000  1.00  0.00     0.021 C 
ATOM     13  C   UNL     1       2.677   1.647   0.000  1.00  0.00     0.011 C 
ATOM     14  C   UNL     1       3.502   2.901   0.000  1.00  0.00     0.101 C 
ATOM     15  C   UNL     1       4.999   2.813   0.000  1.00  0.00     0.331 C 
ATOM     16  O   UNL     1       5.824   4.066   0.000  1.00  0.00    -0.247 OA
ATOM     17  O   UNL     1       5.672   1.472   0.000  1.00  0.00    -0.453 OA
ATOM     18  C   UNL     1       4.848   0.220   0.000  1.00  0.00     0.221 C 
ATOM     19  C   UNL     1      -1.091   0.879   0.000  1.00  0.00     0.062 C 
ATOM     20  C   UNL     1      -1.022  -0.620   0.000  1.00  0.00     0.024 C 
ENDROOT
BRANCH   1  21
ATOM     21  C   UNL     1      -2.892  -1.097   0.000  1.00  0.00     0.128 C 
BRANCH  21  22
ATOM     22  C   UNL     1      -1.838  -2.164   0.000  1.00  0.00     0.305 C 
ATOM     23  O   UNL     1      -0.386  -1.784   0.000  1.00  0.00    -0.252 OA
BRANCH  22  24
ATOM     24  O   UNL     1      -2.235  -3.610   0.000  1.00  0.00    -0.469 OA
ATOM     25  C   UNL     1      -1.180  -4.677   0.000  1.00  0.00     0.282 C 
ENDBRANCH  22  24
ENDBRANCH  21  22
ENDBRANCH   1  21
BRANCH   2  26
ATOM     26  C   UNL     1      -4.499   0.467   0.000  1.00  0.00     0.249 C 
BRANCH  26  27
ATOM     27  O   UNL     1      -4.119  -0.984   0.000  1.00  0.00    -0.454 OA
BRANCH  27  28
ATOM     28  C   UNL     1      -5.186  -2.039   0.000  1.00  0.00     0.303 C 
ATOM     29  C   UNL     1      -4.807  -3.490   0.000  1.00  0.00     0.139 C 
ATOM     30  O   UNL     1      -6.633  -1.642   0.000  1.00  0.00    -0.253 OA
ENDBRANCH  27  28
ENDBRANCH  26  27
BRANCH  26  31
ATOM     31  C   UNL     1      -5.946   0.864   0.000  1.00  0.00     0.170 C 
ATOM     32  C   UNL     1      -7.013  -0.191   0.000  1.00  0.00     0.092 C 
ATOM     33  O   UNL     1      -6.325   2.315   0.000  1.00  0.00    -0.296 OA
ENDBRANCH  26  31
ENDBRANCH   2  26
BRANCH   5  34
ATOM     34  O   UNL     1      -1.230   3.876   0.000  1.00  0.00    -0.356 OA
ATOM     35  H   UNL     1       0.000   0.000   0.000  1.00  0.00     0.215 HD
ENDBRANCH   5  34
BRANCH  18  36
ATOM     36  C   UNL     1       5.520  -1.121   0.000  1.00  0.00     0.032 A 
ATOM     37  C   UNL     1       7.000  -1.365   0.000  1.00  0.00     0.202 A 
ATOM     38  C   UNL     1       4.831  -2.454   0.000  1.00  0.00     0.049 A 
ATOM     39  O   UNL     1       7.226  -2.848   0.000  1.00  0.00    -0.472 OA
ATOM     40  C   UNL     1       5.886  -3.521   0.000  1.00  0.00     0.195 A 
ENDBRANCH  18  36
TORSDOF 9
