REMARK SMILES COc1cc(OC(C)=O)c(-c2oc3cc(OC)c(OC)c(OC(C)=O)c3c(=O)c2OC)cc1OC(C)=O
REMARK SMILES IDX 11 1 29 2 27 3 28 4 26 5 21 6 18 7 15 8 14 9 13 10 12 11
REMARK SMILES IDX 10 12 3 13 4 14 33 15 5 16 32 17 2 18 1 19 34 20 35 21 36 22
REMARK SMILES IDX 37 23 6 24 7 25 8 26 9 27 30 28 31 29 22 30 23 31 24 32
REMARK SMILES IDX 25 33 16 34 17 35 19 36 20 37
REMARK H PARENT
ROOT
ATOM      1  C   UNL     1      -0.502  -0.255   0.000  1.00  0.00     0.184 A 
ATOM      2  C   UNL     1       0.078  -1.638   0.000  1.00  0.00     0.211 A 
ATOM      3  C   UNL     1       1.566  -1.827   0.000  1.00  0.00     0.239 A 
ATOM      4  O   UNL     1       2.146  -3.210   0.000  1.00  0.00    -0.285 OA
ATOM      5  C   UNL     1       2.474  -0.633   0.000  1.00  0.00     0.116 A 
ATOM      6  C   UNL     1       3.962  -0.822   0.000  1.00  0.00     0.191 A 
ATOM      7  C   UNL     1       4.870   0.372   0.000  1.00  0.00     0.205 A 
ATOM      8  C   UNL     1       4.289   1.756   0.000  1.00  0.00     0.168 A 
ATOM      9  C   UNL     1       2.801   1.945   0.000  1.00  0.00     0.098 A 
ATOM     10  C   UNL     1       1.893   0.750   0.000  1.00  0.00     0.146 A 
ATOM     11  O   UNL     1       0.405   0.940   0.000  1.00  0.00    -0.451 OA
ENDROOT
BRANCH   1  12
ATOM     12  C   UNL     1      -1.990  -0.066   0.000  1.00  0.00     0.068 A 
ATOM     13  C   UNL     1      -4.966   0.312   0.000  1.00  0.00     0.165 A 
ATOM     14  C   UNL     1      -4.059   1.507   0.000  1.00  0.00     0.098 A 
ATOM     15  C   UNL     1      -4.386  -1.071   0.000  1.00  0.00     0.173 A 
ATOM     16  C   UNL     1      -2.571   1.317   0.000  1.00  0.00     0.145 A 
ATOM     17  C   UNL     1      -2.898  -1.260   0.000  1.00  0.00     0.067 A 
BRANCH  13  18
ATOM     18  O   UNL     1      -6.455   0.501   0.000  1.00  0.00    -0.493 OA
ATOM     19  C   UNL     1      -7.035   1.885   0.000  1.00  0.00     0.278 C 
ENDBRANCH  13  18
BRANCH  15  20
ATOM     20  O   UNL     1      -5.294  -2.265   0.000  1.00  0.00    -0.423 OA
BRANCH  20  21
ATOM     21  C   UNL     1      -6.782  -2.076   0.000  1.00  0.00     0.308 C 
ATOM     22  C   UNL     1      -7.690  -3.270   0.000  1.00  0.00     0.139 C 
ATOM     23  O   UNL     1      -7.362  -0.693   0.000  1.00  0.00    -0.252 OA
ENDBRANCH  20  21
ENDBRANCH  15  20
BRANCH  16  24
ATOM     24  O   UNL     1      -1.663   2.512   0.000  1.00  0.00    -0.426 OA
BRANCH  24  25
ATOM     25  C   UNL     1      -2.243   3.895   0.000  1.00  0.00     0.308 C 
ATOM     26  C   UNL     1      -1.335   5.089   0.000  1.00  0.00     0.139 C 
ATOM     27  O   UNL     1      -3.731   4.084   0.000  1.00  0.00    -0.252 OA
ENDBRANCH  24  25
ENDBRANCH  16  24
ENDBRANCH   1  12
BRANCH   2  28
ATOM     28  O   UNL     1      -0.830  -2.832   0.000  1.00  0.00    -0.490 OA
ATOM     29  C   UNL     1      -2.318  -2.643   0.000  1.00  0.00     0.278 C 
ENDBRANCH   2  28
BRANCH   6  30
ATOM     30  O   UNL     1       4.542  -2.205   0.000  1.00  0.00    -0.422 OA
BRANCH  30  31
ATOM     31  C   UNL     1       6.030  -2.394   0.000  1.00  0.00     0.308 C 
ATOM     32  C   UNL     1       6.610  -3.777   0.000  1.00  0.00     0.139 C 
ATOM     33  O   UNL     1       6.938  -1.200   0.000  1.00  0.00    -0.252 OA
ENDBRANCH  30  31
ENDBRANCH   6  30
BRANCH   8  34
ATOM     34  O   UNL     1       5.197   2.950   0.000  1.00  0.00    -0.493 OA
ATOM     35  C   UNL     1       6.685   2.761   0.000  1.00  0.00     0.278 C 
ENDBRANCH   8  34
BRANCH   7  36
ATOM     36  O   UNL     1       6.358   0.183   0.000  1.00  0.00    -0.490 OA
ATOM     37  C   UNL     1       7.265   1.377   0.000  1.00  0.00     0.278 C 
ENDBRANCH   7  36
TORSDOF 11
