REMARK SMILES C=C(CC[C@@H](C)[C@H]1CC[C@@]2(C)[C@@H]3CC[C@H]4[C@H](C)[C@@H](O[C@@H]5O[C@H](CO)[C@@H](O)[C@H](O)[C@H]5O)CC[C@@]45C[C@@]35CC[C@]12C)C(C)C
REMARK SMILES IDX 7 1 8 2 9 3 10 4 11 5 12 6 13 7 14 8 15 9 16 10 17 11 18 12
REMARK SMILES IDX 31 13 32 14 33 15 34 16 35 17 36 18 37 19 38 20 39 21 5 22
REMARK SMILES IDX 6 23 4 24 3 25 2 26 1 27 40 28 41 29 42 30 19 31 20 32 21 33
REMARK SMILES IDX 29 34 22 35 27 36 25 37 30 38 23 40 24 41 28 43 26 45
REMARK H PARENT 30 39 24 42 28 44 26 46
ROOT
ATOM      1  C   UNL     1      -5.417   1.414   0.000  1.00  0.00    -0.002 C 
ATOM      2  C   UNL     1      -5.621   2.900   0.000  1.00  0.00     0.005 C 
ATOM      3  C   UNL     1      -4.271   3.554   0.000  1.00  0.00     0.008 C 
ATOM      4  C   UNL     1      -3.232   2.472   0.000  1.00  0.00    -0.024 C 
ATOM      5  C   UNL     1      -2.666   3.861   0.000  1.00  0.00     0.012 C 
ATOM      6  C   UNL     1      -1.733   2.520   0.000  1.00  0.00     0.002 C 
ATOM      7  C   UNL     1      -1.025   3.842   0.000  1.00  0.00     0.005 C 
ATOM      8  C   UNL     1       0.474   3.890   0.000  1.00  0.00     0.005 C 
ATOM      9  C   UNL     1       1.265   2.616   0.000  1.00  0.00     0.001 C 
ATOM     10  C   UNL     1       2.765   2.664   0.000  1.00  0.00     0.019 C 
ATOM     11  C   UNL     1       3.473   3.986   0.000  1.00  0.00     0.011 C 
ATOM     12  C   UNL     1       3.556   1.389   0.000  1.00  0.00     0.124 C 
ATOM     13  C   UNL     1       2.848   0.067   0.000  1.00  0.00     0.033 C 
ATOM     14  C   UNL     1       1.349   0.019   0.000  1.00  0.00     0.010 C 
ATOM     15  C   UNL     1       0.557   1.293   0.000  1.00  0.00    -0.020 C 
ATOM     16  C   UNL     1      -0.151  -0.029   0.000  1.00  0.00     0.015 C 
ATOM     17  C   UNL     1      -0.942   1.245   0.000  1.00  0.00    -0.020 C 
ATOM     18  C   UNL     1      -1.650  -0.077   0.000  1.00  0.00     0.008 C 
ATOM     19  C   UNL     1      -3.149  -0.125   0.000  1.00  0.00     0.008 C 
ATOM     20  C   UNL     1      -3.940   1.149   0.000  1.00  0.00    -0.024 C 
ATOM     21  C   UNL     1      -4.783  -0.092   0.000  1.00  0.00     0.012 C 
ENDROOT
BRANCH   1  22
ATOM     22  C   UNL     1      -6.499   0.375   0.000  1.00  0.00    -0.010 C 
ATOM     23  C   UNL     1      -7.939   0.793   0.000  1.00  0.00     0.008 C 
BRANCH  22  24
ATOM     24  C   UNL     1      -6.140  -1.081   0.000  1.00  0.00     0.008 C 
BRANCH  24  25
ATOM     25  C   UNL     1      -7.222  -2.120   0.000  1.00  0.00     0.031 C 
BRANCH  25  26
ATOM     26  C   UNL     1      -6.864  -3.576   0.000  1.00  0.00    -0.075 C 
ATOM     27  C   UNL     1      -7.946  -4.615   0.000  1.00  0.00     0.008 C 
BRANCH  26  28
ATOM     28  C   UNL     1      -5.423  -3.994   0.000  1.00  0.00     0.008 C 
ATOM     29  C   UNL     1      -5.064  -5.451   0.000  1.00  0.00     0.012 C 
ATOM     30  C   UNL     1      -4.341  -2.955   0.000  1.00  0.00     0.012 C 
ENDBRANCH  26  28
ENDBRANCH  25  26
ENDBRANCH  24  25
ENDBRANCH  22  24
ENDBRANCH   1  22
BRANCH  12  31
ATOM     31  O   UNL     1       5.055   1.437   0.000  1.00  0.00    -0.346 OA
BRANCH  31  32
ATOM     32  C   UNL     1       5.846   0.163   0.000  1.00  0.00     0.282 C 
ATOM     33  O   UNL     1       5.138  -1.159   0.000  1.00  0.00    -0.341 OA
ATOM     34  C   UNL     1       7.346   0.211   0.000  1.00  0.00     0.202 C 
ATOM     35  C   UNL     1       5.929  -2.434   0.000  1.00  0.00     0.178 C 
ATOM     36  C   UNL     1       8.137  -1.063   0.000  1.00  0.00     0.179 C 
ATOM     37  C   UNL     1       7.429  -2.386   0.000  1.00  0.00     0.177 C 
BRANCH  34  38
ATOM     38  O   UNL     1       8.053   1.533   0.000  1.00  0.00    -0.385 OA
ATOM     39  H   UNL     1       0.000   0.000   0.000  1.00  0.00     0.211 HD
ENDBRANCH  34  38
BRANCH  35  40
ATOM     40  C   UNL     1       5.221  -3.756   0.000  1.00  0.00     0.191 C 
BRANCH  40  41
ATOM     41  O   UNL     1       3.722  -3.804   0.000  1.00  0.00    -0.394 OA
ATOM     42  H   UNL     1       0.000   0.000   0.000  1.00  0.00     0.210 HD
ENDBRANCH  40  41
ENDBRANCH  35  40
BRANCH  36  43
ATOM     43  O   UNL     1       9.636  -1.016   0.000  1.00  0.00    -0.387 OA
ATOM     44  H   UNL     1       0.000   0.000   0.000  1.00  0.00     0.211 HD
ENDBRANCH  36  43
BRANCH  37  45
ATOM     45  O   UNL     1       8.220  -3.660   0.000  1.00  0.00    -0.387 OA
ATOM     46  H   UNL     1       0.000   0.000   0.000  1.00  0.00     0.211 HD
ENDBRANCH  37  45
ENDBRANCH  31  32
ENDBRANCH  12  31
TORSDOF 12
