REMARK SMILES COc1cc2c(cc1CCCc1ccc(O)c(C)c1O)OCO2
REMARK SMILES IDX 10 1 9 2 8 3 3 4 4 5 5 6 7 7 6 8 23 9 21 10 22 11 2 12 1 13
REMARK SMILES IDX 11 14 12 15 13 16 19 17 14 18 17 19 15 20 18 21 20 22 16 24
REMARK H PARENT 20 23 16 25
ROOT
ATOM      1  C   UNL     1       0.400   0.478   0.000  1.00  0.00     0.010 C 
ENDROOT
BRANCH   1   2
ATOM      2  C   UNL     1      -0.846   1.314   0.000  1.00  0.00     0.040 C 
BRANCH   2   3
ATOM      3  C   UNL     1      -2.193   0.654   0.000  1.00  0.00    -0.002 A 
ATOM      4  C   UNL     1      -3.438   1.490   0.000  1.00  0.00     0.126 A 
ATOM      5  C   UNL     1      -4.785   0.829   0.000  1.00  0.00     0.097 A 
ATOM      6  C   UNL     1      -4.886  -0.668   0.000  1.00  0.00     0.169 A 
ATOM      7  C   UNL     1      -2.294  -0.843   0.000  1.00  0.00     0.058 A 
ATOM      8  C   UNL     1      -3.640  -1.504   0.000  1.00  0.00     0.166 A 
ATOM      9  O   UNL     1      -6.066  -1.594   0.000  1.00  0.00    -0.453 OA
ATOM     10  O   UNL     1      -4.051  -2.946   0.000  1.00  0.00    -0.454 OA
ATOM     11  C   UNL     1      -5.550  -3.002   0.000  1.00  0.00     0.468 C 
BRANCH   4  12
ATOM     12  O   UNL     1      -3.337   2.986   0.000  1.00  0.00    -0.496 OA
ATOM     13  C   UNL     1      -4.582   3.822   0.000  1.00  0.00     0.278 C 
ENDBRANCH   4  12
ENDBRANCH   2   3
ENDBRANCH   1   2
BRANCH   1  14
ATOM     14  C   UNL     1       1.746   1.139   0.000  1.00  0.00     0.040 C 
BRANCH  14  15
ATOM     15  C   UNL     1       2.992   0.303   0.000  1.00  0.00    -0.006 A 
ATOM     16  C   UNL     1       2.890  -1.194   0.000  1.00  0.00     0.011 A 
ATOM     17  C   UNL     1       4.338   0.964   0.000  1.00  0.00     0.125 A 
ATOM     18  C   UNL     1       4.136  -2.030   0.000  1.00  0.00     0.047 A 
ATOM     19  C   UNL     1       5.584   0.128   0.000  1.00  0.00     0.033 A 
ATOM     20  C   UNL     1       5.483  -1.369   0.000  1.00  0.00     0.122 A 
ATOM     21  C   UNL     1       6.931   0.788   0.000  1.00  0.00     0.052 C 
BRANCH  17  22
ATOM     22  O   UNL     1       4.440   2.460   0.000  1.00  0.00    -0.507 OA
ATOM     23  H   UNL     1       0.000   0.000   0.000  1.00  0.00     0.293 HD
ENDBRANCH  17  22
BRANCH  20  24
ATOM     24  O   UNL     1       6.728  -2.205   0.000  1.00  0.00    -0.508 OA
ATOM     25  H   UNL     1       0.000   0.000   0.000  1.00  0.00     0.293 HD
ENDBRANCH  20  24
ENDBRANCH  14  15
ENDBRANCH   1  14
TORSDOF 7
