REMARK SMILES O=C(/C=C/c1ccc(O)c(O)c1)OC[C@H]1O[C@@H](O)[C@H](O)[C@@H](O)[C@@H]1O
REMARK SMILES IDX 1 1 2 2 3 3 4 4 5 5 6 6 12 7 7 8 10 9 8 10 11 11 9 13 13 15
REMARK SMILES IDX 14 16 15 17 16 18 23 19 17 20 21 21 19 22 24 23 18 25 22 27
REMARK SMILES IDX 20 29
REMARK H PARENT 11 12 9 14 24 24 18 26 22 28 20 30
ROOT
ATOM      1  O   UNL     1       0.413  -2.834   0.000  1.00  0.00    -0.247 OA
ATOM      2  C   UNL     1       0.481  -1.336   0.000  1.00  0.00     0.330 C 
ENDROOT
BRANCH   2   3
ATOM      3  C   UNL     1       1.813  -0.645   0.000  1.00  0.00     0.094 C 
BRANCH   3   4
ATOM      4  C   UNL     1       3.077  -1.453   0.000  1.00  0.00     0.016 C 
BRANCH   4   5
ATOM      5  C   UNL     1       4.408  -0.763   0.000  1.00  0.00    -0.021 A 
ATOM      6  C   UNL     1       5.672  -1.571   0.000  1.00  0.00     0.012 A 
ATOM      7  C   UNL     1       4.476   0.736   0.000  1.00  0.00     0.058 A 
ATOM      8  C   UNL     1       7.004  -0.880   0.000  1.00  0.00     0.051 A 
ATOM      9  C   UNL     1       5.808   1.426   0.000  1.00  0.00     0.157 A 
ATOM     10  C   UNL     1       7.072   0.618   0.000  1.00  0.00     0.157 A 
BRANCH   9  11
ATOM     11  O   UNL     1       5.876   2.925   0.000  1.00  0.00    -0.504 OA
ATOM     12  H   UNL     1       0.000   0.000   0.000  1.00  0.00     0.293 HD
ENDBRANCH   9  11
BRANCH  10  13
ATOM     13  O   UNL     1       8.403   1.309   0.000  1.00  0.00    -0.504 OA
ATOM     14  H   UNL     1       0.000   0.000   0.000  1.00  0.00     0.293 HD
ENDBRANCH  10  13
ENDBRANCH   4   5
ENDBRANCH   3   4
ENDBRANCH   2   3
BRANCH   2  15
ATOM     15  O   UNL     1      -0.782  -0.528   0.000  1.00  0.00    -0.460 OA
BRANCH  15  16
ATOM     16  C   UNL     1      -2.114  -1.218   0.000  1.00  0.00     0.268 C 
BRANCH  16  17
ATOM     17  C   UNL     1      -3.378  -0.410   0.000  1.00  0.00     0.190 C 
ATOM     18  O   UNL     1      -3.310   1.088   0.000  1.00  0.00    -0.340 OA
ATOM     19  C   UNL     1      -4.710  -1.101   0.000  1.00  0.00     0.178 C 
ATOM     20  C   UNL     1      -4.574   1.896   0.000  1.00  0.00     0.279 C 
ATOM     21  C   UNL     1      -5.973  -0.292   0.000  1.00  0.00     0.179 C 
ATOM     22  C   UNL     1      -5.905   1.206   0.000  1.00  0.00     0.201 C 
BRANCH  19  23
ATOM     23  O   UNL     1      -4.777  -2.599   0.000  1.00  0.00    -0.387 OA
ATOM     24  H   UNL     1       0.000   0.000   0.000  1.00  0.00     0.211 HD
ENDBRANCH  19  23
BRANCH  20  25
ATOM     25  O   UNL     1      -4.506   3.395   0.000  1.00  0.00    -0.366 OA
ATOM     26  H   UNL     1       0.000   0.000   0.000  1.00  0.00     0.213 HD
ENDBRANCH  20  25
BRANCH  21  27
ATOM     27  O   UNL     1      -7.305  -0.983   0.000  1.00  0.00    -0.387 OA
ATOM     28  H   UNL     1       0.000   0.000   0.000  1.00  0.00     0.211 HD
ENDBRANCH  21  27
BRANCH  22  29
ATOM     29  O   UNL     1      -7.169   2.014   0.000  1.00  0.00    -0.385 OA
ATOM     30  H   UNL     1       0.000   0.000   0.000  1.00  0.00     0.211 HD
ENDBRANCH  22  29
ENDBRANCH  16  17
ENDBRANCH  15  16
ENDBRANCH   2  15
TORSDOF 12
