REMARK SMILES C=CC[C@]12C=C(OC)C(=O)[C@H](C1=O)[C@H](c1ccc(OC)c(OC)c1)[C@H]2C
REMARK SMILES IDX 4 1 5 2 6 3 9 4 10 5 11 6 12 7 13 8 14 9 25 10 26 11 3 12
REMARK SMILES IDX 2 13 1 14 7 15 8 16 15 17 16 18 24 19 17 20 21 21 18 22
REMARK SMILES IDX 22 23 23 24 19 25 20 26
REMARK H PARENT
ROOT
ATOM      1  C   UNL     1       2.342  -0.717   0.000  1.00  0.00     0.058 C 
ATOM      2  C   UNL     1       3.636   0.042   0.000  1.00  0.00     0.038 C 
ATOM      3  C   UNL     1       3.626   1.542   0.000  1.00  0.00     0.159 C 
ATOM      4  C   UNL     1       2.322   2.283   0.000  1.00  0.00     0.208 C 
ATOM      5  O   UNL     1       2.313   3.783   0.000  1.00  0.00    -0.290 OA
ATOM      6  C   UNL     1       1.028   1.525   0.000  1.00  0.00     0.140 C 
ATOM      7  C   UNL     1       1.038   0.025   0.000  1.00  0.00     0.155 C 
ATOM      8  O   UNL     1      -0.256  -0.733   0.000  1.00  0.00    -0.298 OA
ATOM      9  C   UNL     1       0.118   0.256   0.000  1.00  0.00     0.042 C 
ATOM     10  C   UNL     1       0.877  -1.038   0.000  1.00  0.00     0.012 C 
ATOM     11  C   UNL     1       0.276  -2.412   0.000  1.00  0.00     0.010 C 
ENDROOT
BRANCH   1  12
ATOM     12  C   UNL     1       2.352  -2.216   0.000  1.00  0.00     0.046 C 
BRANCH  12  13
ATOM     13  C   UNL     1       3.655  -2.958   0.000  1.00  0.00    -0.033 C 
ATOM     14  C   UNL     1       3.665  -4.458   0.000  1.00  0.00     0.004 C 
ENDBRANCH  12  13
ENDBRANCH   1  12
BRANCH   3  15
ATOM     15  O   UNL     1       4.921   2.300   0.000  1.00  0.00    -0.493 OA
ATOM     16  C   UNL     1       6.224   1.559   0.000  1.00  0.00     0.278 C 
ENDBRANCH   3  15
BRANCH   9  17
ATOM     17  C   UNL     1      -1.374   0.403   0.000  1.00  0.00    -0.039 A 
ATOM     18  C   UNL     1      -1.993   1.770   0.000  1.00  0.00     0.008 A 
ATOM     19  C   UNL     1      -2.248  -0.816   0.000  1.00  0.00     0.054 A 
ATOM     20  C   UNL     1      -3.486   1.917   0.000  1.00  0.00     0.051 A 
ATOM     21  C   UNL     1      -3.741  -0.669   0.000  1.00  0.00     0.160 A 
ATOM     22  C   UNL     1      -4.360   0.698   0.000  1.00  0.00     0.160 A 
BRANCH  21  23
ATOM     23  O   UNL     1      -4.615  -1.888   0.000  1.00  0.00    -0.493 OA
ATOM     24  C   UNL     1      -3.996  -3.254   0.000  1.00  0.00     0.278 C 
ENDBRANCH  21  23
BRANCH  22  25
ATOM     25  O   UNL     1      -5.853   0.845   0.000  1.00  0.00    -0.493 OA
ATOM     26  C   UNL     1      -6.472   2.211   0.000  1.00  0.00     0.278 C 
ENDBRANCH  22  25
ENDBRANCH   9  17
TORSDOF 6
