REMARK SMILES COc1ccc(CCC(=O)c2c(O)cc(OC)cc2OC)cc1
REMARK SMILES IDX 8 1 7 2 6 3 3 4 4 5 23 6 5 7 22 8 2 9 1 10 9 11 10 12 11 13
REMARK SMILES IDX 12 14 19 15 14 16 18 17 15 18 13 19 20 21 21 22 16 23 17 24
REMARK H PARENT 13 20
ROOT
ATOM      1  C   UNL     1      -0.427   0.542   0.000  1.00  0.00     0.086 C 
ENDROOT
BRANCH   1   2
ATOM      2  C   UNL     1      -1.689   1.353   0.000  1.00  0.00     0.044 C 
BRANCH   2   3
ATOM      3  C   UNL     1      -3.022   0.665   0.000  1.00  0.00    -0.047 A 
ATOM      4  C   UNL     1      -5.688  -0.711   0.000  1.00  0.00     0.118 A 
ATOM      5  C   UNL     1      -5.617   0.788   0.000  1.00  0.00     0.046 A 
ATOM      6  C   UNL     1      -4.426  -1.521   0.000  1.00  0.00     0.046 A 
ATOM      7  C   UNL     1      -4.284   1.476   0.000  1.00  0.00     0.007 A 
ATOM      8  C   UNL     1      -3.093  -0.833   0.000  1.00  0.00     0.007 A 
BRANCH   4   9
ATOM      9  O   UNL     1      -7.021  -1.399   0.000  1.00  0.00    -0.497 OA
ATOM     10  C   UNL     1      -8.283  -0.588   0.000  1.00  0.00     0.278 C 
ENDBRANCH   4   9
ENDBRANCH   2   3
ENDBRANCH   1   2
BRANCH   1  11
ATOM     11  C   UNL     1       0.906   1.230   0.000  1.00  0.00     0.170 C 
ATOM     12  O   UNL     1       0.977   2.729   0.000  1.00  0.00    -0.294 OA
BRANCH  11  13
ATOM     13  C   UNL     1       2.168   0.420   0.000  1.00  0.00     0.102 A 
ATOM     14  C   UNL     1       2.098  -1.078   0.000  1.00  0.00     0.133 A 
ATOM     15  C   UNL     1       3.501   1.108   0.000  1.00  0.00     0.137 A 
ATOM     16  C   UNL     1       3.360  -1.889   0.000  1.00  0.00     0.093 A 
ATOM     17  C   UNL     1       4.764   0.297   0.000  1.00  0.00     0.093 A 
ATOM     18  C   UNL     1       4.693  -1.201   0.000  1.00  0.00     0.126 A 
BRANCH  14  19
ATOM     19  O   UNL     1       0.765  -1.766   0.000  1.00  0.00    -0.507 OA
ATOM     20  H   UNL     1       0.000   0.000   0.000  1.00  0.00     0.293 HD
ENDBRANCH  14  19
BRANCH  15  21
ATOM     21  O   UNL     1       3.572   2.606   0.000  1.00  0.00    -0.496 OA
ATOM     22  C   UNL     1       4.905   3.294   0.000  1.00  0.00     0.278 C 
ENDBRANCH  15  21
BRANCH  18  23
ATOM     23  O   UNL     1       5.955  -2.011   0.000  1.00  0.00    -0.496 OA
ATOM     24  C   UNL     1       5.884  -3.510   0.000  1.00  0.00     0.278 C 
ENDBRANCH  18  23
ENDBRANCH  11  13
ENDBRANCH   1  11
TORSDOF 8
