REMARK SMILES C/C=C(\C)C(=O)CO[C@@H]1[C@@H]2CC3=C4CC(=O)O[C@@H](c5ccoc5)[C@]4(C)CC[C@@H]3[C@@](C)(C2=O)[C@@H](CC(=O)OC)C1(C)C
REMARK SMILES IDX 8 1 7 2 5 3 6 4 3 5 4 6 2 7 1 8 9 9 10 10 39 11 11 12 31 13
REMARK SMILES IDX 33 14 12 15 29 16 13 17 28 18 14 19 24 20 27 21 15 22 18 23
REMARK SMILES IDX 26 24 17 25 40 26 41 27 32 28 30 29 25 30 16 31 34 32 35 33
REMARK SMILES IDX 36 34 37 35 38 36 19 37 23 38 20 39 22 40 21 41
REMARK H PARENT
ROOT
ATOM      1  O   UNL     1       4.409  -0.488   0.000  1.00  0.00    -0.369 OA
ENDROOT
BRANCH   1   2
ATOM      2  C   UNL     1       4.740   0.975   0.000  1.00  0.00     0.241 C 
BRANCH   2   3
ATOM      3  C   UNL     1       6.172   1.420   0.000  1.00  0.00     0.183 C 
ATOM      4  O   UNL     1       7.274   0.402   0.000  1.00  0.00    -0.292 OA
BRANCH   3   5
ATOM      5  C   UNL     1       6.503   2.883   0.000  1.00  0.00    -0.010 C 
ATOM      6  C   UNL     1       5.401   3.901   0.000  1.00  0.00     0.048 C 
BRANCH   5   7
ATOM      7  C   UNL     1       7.935   3.329   0.000  1.00  0.00    -0.023 C 
ATOM      8  C   UNL     1       8.265   4.792   0.000  1.00  0.00     0.036 C 
ENDBRANCH   5   7
ENDBRANCH   3   5
ENDBRANCH   2   3
ENDBRANCH   1   2
BRANCH   1   9
ATOM      9  C   UNL     1       2.977  -0.934   0.000  1.00  0.00     0.135 C 
ATOM     10  C   UNL     1       1.875   0.084   0.000  1.00  0.00     0.090 C 
ATOM     11  C   UNL     1       2.646  -2.397   0.000  1.00  0.00    -0.004 C 
ATOM     12  C   UNL     1       0.773   1.102   0.000  1.00  0.00     0.045 C 
ATOM     13  C   UNL     1       1.544  -1.379   0.000  1.00  0.00     0.145 C 
ATOM     14  C   UNL     1       1.214  -2.842   0.000  1.00  0.00     0.022 C 
ATOM     15  C   UNL     1      -0.659   0.657   0.000  1.00  0.00    -0.065 C 
ATOM     16  C   UNL     1       0.112  -1.824   0.000  1.00  0.00     0.037 C 
ATOM     17  C   UNL     1      -1.761   1.675   0.000  1.00  0.00    -0.050 C 
ATOM     18  C   UNL     1      -0.990  -0.806   0.000  1.00  0.00     0.029 C 
ATOM     19  C   UNL     1      -1.431   3.138   0.000  1.00  0.00     0.154 C 
ATOM     20  C   UNL     1      -3.194   1.229   0.000  1.00  0.00     0.031 C 
ATOM     21  C   UNL     1      -2.422  -1.252   0.000  1.00  0.00     0.010 C 
ATOM     22  C   UNL     1      -2.533   4.156   0.000  1.00  0.00     0.310 C 
ATOM     23  C   UNL     1      -4.295   2.247   0.000  1.00  0.00     0.220 C 
ATOM     24  C   UNL     1      -3.524  -0.234   0.000  1.00  0.00     0.016 C 
ATOM     25  O   UNL     1      -3.965   3.710   0.000  1.00  0.00    -0.456 OA
ATOM     26  C   UNL     1       2.836  -3.885   0.000  1.00  0.00     0.014 C 
ATOM     27  C   UNL     1       4.144  -2.468   0.000  1.00  0.00     0.014 C 
ATOM     28  O   UNL     1       2.243  -1.762   0.000  1.00  0.00    -0.299 OA
ATOM     29  C   UNL     1      -0.219  -3.287   0.000  1.00  0.00     0.020 C 
ATOM     30  C   UNL     1      -4.626   0.784   0.000  1.00  0.00     0.020 C 
ATOM     31  O   UNL     1      -2.202   5.619   0.000  1.00  0.00    -0.252 OA
BRANCH  14  32
ATOM     32  C   UNL     1       0.883  -4.305   0.000  1.00  0.00     0.128 C 
BRANCH  32  33
ATOM     33  C   UNL     1      -0.549  -4.750   0.000  1.00  0.00     0.305 C 
ATOM     34  O   UNL     1      -1.651  -3.733   0.000  1.00  0.00    -0.252 OA
BRANCH  33  35
ATOM     35  O   UNL     1      -0.880  -6.213   0.000  1.00  0.00    -0.469 OA
ATOM     36  C   UNL     1      -2.312  -6.659   0.000  1.00  0.00     0.282 C 
ENDBRANCH  33  35
ENDBRANCH  32  33
ENDBRANCH  14  32
BRANCH  23  37
ATOM     37  C   UNL     1      -5.728   1.802   0.000  1.00  0.00     0.032 A 
ATOM     38  C   UNL     1      -6.210   0.381   0.000  1.00  0.00     0.202 A 
ATOM     39  C   UNL     1      -6.930   2.699   0.000  1.00  0.00     0.049 A 
ATOM     40  O   UNL     1      -7.709   0.400   0.000  1.00  0.00    -0.472 OA
ATOM     41  C   UNL     1      -8.155   1.833   0.000  1.00  0.00     0.195 A 
ENDBRANCH  23  37
ENDBRANCH   1   9
TORSDOF 9
