REMARK SMILES CN1CCC[C@H]1C(=O)O
REMARK SMILES IDX 7 1 8 2 6 3 2 4 3 5 4 6 5 7 1 8 9 9
REMARK H PARENT 9 10
ROOT
ATOM      1  C   UNL     1      -1.607   0.169   0.000  1.00  0.00     0.320 C 
ATOM      2  O   UNL     1      -2.253  -1.185   0.000  1.00  0.00    -0.251 OA
ENDROOT
BRANCH   1   3
ATOM      3  C   UNL     1      -0.111   0.285   0.000  1.00  0.00     0.167 C 
ATOM      4  N   UNL     1       0.862  -0.856   0.000  1.00  0.00    -0.294 NA
ATOM      5  C   UNL     1       2.248  -0.282   0.000  1.00  0.00     0.085 C 
ATOM      6  C   UNL     1       2.131   1.213   0.000  1.00  0.00     0.018 C 
ATOM      7  C   UNL     1       0.673   1.564   0.000  1.00  0.00     0.032 C 
ATOM      8  C   UNL     1       0.511  -2.314   0.000  1.00  0.00     0.106 C 
ENDBRANCH   1   3
BRANCH   1   9
ATOM      9  O   UNL     1      -2.456   1.405   0.000  1.00  0.00    -0.480 OA
ATOM     10  H   UNL     1       0.000   0.000   0.000  1.00  0.00     0.296 HD
ENDBRANCH   1   9
TORSDOF 2
