REMARK SMILES CC(=O)O[C@@H]1[C@@H]2O[C@H]2[C@@](C)(O)C(=O)[C@@H](C)C/C=C/[C@H]2C(=O)[C@H](C)[C@@H](C)[C@H]3[C@H](Cc4ccccc4)NC(=O)[C@@]312
REMARK SMILES IDX 19 1 20 2 21 3 22 4 23 5 24 6 25 7 26 8 27 9 35 10 36 11
REMARK SMILES IDX 37 12 38 13 5 15 4 16 2 17 1 18 3 19 6 20 7 21 8 22 9 23
REMARK SMILES IDX 10 24 11 25 12 27 13 28 18 30 17 31 16 32 14 33 15 34 28 36
REMARK SMILES IDX 29 37 30 38 34 39 31 40 33 41 32 42
REMARK H PARENT 35 14 11 26
REMARK Flexibility Score:   23.900
ROOT
ATOM      1  C   UNL     1      -0.332   2.220   0.000  1.00  0.00     0.098 C 
ATOM      2  C   UNL     1       0.702   3.307   0.000  1.00  0.00     0.144 C 
ATOM      3  O   UNL     1       0.277   4.746   0.000  1.00  0.00    -0.299 OA
ATOM      4  C   UNL     1       2.160   2.956   0.000  1.00  0.00     0.057 C 
ATOM      5  C   UNL     1       3.193   4.043   0.000  1.00  0.00     0.016 C 
ATOM      6  C   UNL     1       2.585   1.517   0.000  1.00  0.00     0.002 C 
ATOM      7  C   UNL     1       4.043   1.166   0.000  1.00  0.00     0.009 C 
ATOM      8  C   UNL     1       1.551   0.430   0.000  1.00  0.00     0.036 C 
ATOM      9  C   UNL     1       1.668  -1.066   0.000  1.00  0.00     0.091 C 
ATOM     10  N   UNL     1       0.281  -1.639   0.000  1.00  0.00    -0.352 N 
ATOM     11  C   UNL     1      -0.692  -0.497   0.000  1.00  0.00     0.231 C 
ATOM     12  O   UNL     1      -2.187  -0.614   0.000  1.00  0.00    -0.274 OA
ATOM     13  C   UNL     1       0.093   0.781   0.000  1.00  0.00     0.107 C 
ATOM     14  H   UNL     1       0.000   0.000   0.000  1.00  0.00     0.163 HD
ENDROOT
BRANCH  13  15
ATOM     15  C   UNL     1      -0.327  -0.659   0.000  1.00  0.00     0.225 C 
BRANCH  15  16
ATOM     16  O   UNL     1       0.936  -1.468   0.000  1.00  0.00    -0.458 OA
BRANCH  16  17
ATOM     17  C   UNL     1       0.867  -2.966   0.000  1.00  0.00     0.303 C 
ATOM     18  C   UNL     1       2.130  -3.775   0.000  1.00  0.00     0.139 C 
ATOM     19  O   UNL     1      -0.465  -3.655   0.000  1.00  0.00    -0.253 OA
ENDBRANCH  16  17
ENDBRANCH  15  16
BRANCH  15  20
ATOM     20  C   UNL     1      -1.459  -1.643   0.000  1.00  0.00     0.193 C 
ATOM     21  O   UNL     1      -2.015  -3.036   0.000  1.00  0.00    -0.362 OA
ATOM     22  C   UNL     1      -2.944  -1.859   0.000  1.00  0.00     0.190 C 
BRANCH  22  23
ATOM     23  C   UNL     1      -4.309  -1.238   0.000  1.00  0.00     0.149 C 
ATOM     24  C   UNL     1      -5.766  -1.594   0.000  1.00  0.00     0.054 C 
BRANCH  23  25
ATOM     25  O   UNL     1      -4.449  -2.731   0.000  1.00  0.00    -0.379 OA
ATOM     26  H   UNL     1       0.000   0.000   0.000  1.00  0.00     0.212 HD
ENDBRANCH  23  25
BRANCH  23  27
ATOM     27  C   UNL     1      -5.122   0.023   0.000  1.00  0.00     0.169 CG0
ATOM     28  O   UNL     1      -6.561  -0.402   0.000  1.00  0.00    -0.296 OA
ATOM     29  G   UNL     1      -5.125   1.523   0.000  1.00  0.00     0.000 G0
ENDBRANCH  23  27
ENDBRANCH  22  23
ENDBRANCH  15  20
ENDBRANCH  13  15
BRANCH   1  30
ATOM     30  C   UNL     1      -1.467   3.200   0.000  1.00  0.00    -0.019 C 
BRANCH  30  31
ATOM     31  C   UNL     1      -2.831   2.575   0.000  1.00  0.00    -0.030 C 
BRANCH  31  32
ATOM     32  C   UNL     1      -4.316   2.786   0.000  1.00  0.00     0.038 C 
BRANCH  32  33
ATOM     33  C   UNL     1      -5.125   1.523   0.000  1.00  0.00     0.060 CG0
ATOM     34  C   UNL     1      -6.564   1.943   0.000  1.00  0.00     0.016 C 
ATOM     35  G   UNL     1      -5.122   0.023   0.000  1.00  0.00     0.000 G0
ENDBRANCH  32  33
ENDBRANCH  31  32
ENDBRANCH  30  31
ENDBRANCH   1  30
BRANCH   9  36
ATOM     36  C   UNL     1       2.946  -1.850   0.000  1.00  0.00     0.060 C 
BRANCH  36  37
ATOM     37  C   UNL     1       4.265  -1.136   0.000  1.00  0.00    -0.046 A 
ATOM     38  C   UNL     1       4.305   0.364   0.000  1.00  0.00     0.004 A 
ATOM     39  C   UNL     1       5.543  -1.920   0.000  1.00  0.00     0.004 A 
ATOM     40  C   UNL     1       5.624   1.079   0.000  1.00  0.00     0.000 A 
ATOM     41  C   UNL     1       6.862  -1.206   0.000  1.00  0.00     0.000 A 
ATOM     42  C   UNL     1       6.902   0.294   0.000  1.00  0.00     0.000 A 
ENDBRANCH  36  37
ENDBRANCH   9  36
TORSDOF 5
