REMARK SMILES COC(=O)c1ccc(C(=Cc2ccc(OC)c(OC)c2)C(=O)O)cc1O
REMARK SMILES IDX 9 1 8 2 5 3 6 4 25 5 7 6 24 7 3 8 4 9 2 10 1 11 26 12 10 14
REMARK SMILES IDX 11 15 12 16 20 17 13 18 17 19 14 20 18 21 19 22 15 23 16 24
REMARK SMILES IDX 21 25 22 26 23 27
REMARK H PARENT 26 13 23 28
ROOT
ATOM      1  C   UNL     1      -0.105   0.243   0.000  1.00  0.00     0.067 C 
ENDROOT
BRANCH   1   2
ATOM      2  C   UNL     1      -1.601   0.129   0.000  1.00  0.00    -0.007 A 
ATOM      3  C   UNL     1      -4.592  -0.098   0.000  1.00  0.00     0.101 A 
ATOM      4  C   UNL     1      -3.943   1.254   0.000  1.00  0.00     0.020 A 
ATOM      5  C   UNL     1      -3.746  -1.336   0.000  1.00  0.00     0.130 A 
ATOM      6  C   UNL     1      -2.447   1.368   0.000  1.00  0.00     0.010 A 
ATOM      7  C   UNL     1      -2.251  -1.223   0.000  1.00  0.00     0.056 A 
BRANCH   3   8
ATOM      8  C   UNL     1      -6.088  -0.211   0.000  1.00  0.00     0.341 C 
ATOM      9  O   UNL     1      -6.738  -1.563   0.000  1.00  0.00    -0.246 OA
BRANCH   8  10
ATOM     10  O   UNL     1      -6.934   1.028   0.000  1.00  0.00    -0.465 OA
ATOM     11  C   UNL     1      -8.430   0.914   0.000  1.00  0.00     0.282 C 
ENDBRANCH   8  10
ENDBRANCH   3   8
BRANCH   5  12
ATOM     12  O   UNL     1      -4.396  -2.688   0.000  1.00  0.00    -0.507 OA
ATOM     13  H   UNL     1       0.000   0.000   0.000  1.00  0.00     0.293 HD
ENDBRANCH   5  12
ENDBRANCH   1   2
BRANCH   1  14
ATOM     14  C   UNL     1       0.741  -0.996   0.000  1.00  0.00     0.024 C 
BRANCH  14  15
ATOM     15  C   UNL     1       2.237  -0.883   0.000  1.00  0.00    -0.021 A 
ATOM     16  C   UNL     1       3.083  -2.121   0.000  1.00  0.00     0.012 A 
ATOM     17  C   UNL     1       2.886   0.469   0.000  1.00  0.00     0.058 A 
ATOM     18  C   UNL     1       4.578  -2.008   0.000  1.00  0.00     0.051 A 
ATOM     19  C   UNL     1       4.382   0.583   0.000  1.00  0.00     0.161 A 
ATOM     20  C   UNL     1       5.228  -0.656   0.000  1.00  0.00     0.160 A 
BRANCH  19  21
ATOM     21  O   UNL     1       5.032   1.935   0.000  1.00  0.00    -0.493 OA
ATOM     22  C   UNL     1       6.527   2.048   0.000  1.00  0.00     0.278 C 
ENDBRANCH  19  21
BRANCH  20  23
ATOM     23  O   UNL     1       6.724  -0.542   0.000  1.00  0.00    -0.493 OA
ATOM     24  C   UNL     1       7.570  -1.781   0.000  1.00  0.00     0.278 C 
ENDBRANCH  20  23
ENDBRANCH  14  15
ENDBRANCH   1  14
BRANCH   1  25
ATOM     25  C   UNL     1       0.544   1.595   0.000  1.00  0.00     0.336 C 
ATOM     26  O   UNL     1      -0.302   2.833   0.000  1.00  0.00    -0.246 OA
BRANCH  25  27
ATOM     27  O   UNL     1       2.040   1.708   0.000  1.00  0.00    -0.478 OA
ATOM     28  H   UNL     1       0.000   0.000   0.000  1.00  0.00     0.297 HD
ENDBRANCH  25  27
ENDBRANCH   1  25
TORSDOF 10
