REMARK SMILES CC(C)c1cc2c(c(O)c1O)[C@@]13CCCC(C)(C)C1[C@H](O)[C@@H]2OC3=O
REMARK SMILES IDX 4 1 5 2 6 3 7 4 8 5 10 6 12 7 13 8 14 9 15 10 16 11 17 12
REMARK SMILES IDX 18 13 19 14 20 15 22 16 23 17 24 18 25 19 2 20 1 21 3 22
REMARK SMILES IDX 11 23 9 25 21 27
REMARK H PARENT 11 24 9 26 21 28
ROOT
ATOM      1  C   UNL     1      -3.381   0.359   0.000  1.00  0.00     0.001 A 
ATOM      2  C   UNL     1      -2.332   1.432   0.000  1.00  0.00     0.016 A 
ATOM      3  C   UNL     1      -0.879   1.060   0.000  1.00  0.00     0.004 A 
ATOM      4  C   UNL     1      -0.474  -0.384   0.000  1.00  0.00     0.023 A 
ATOM      5  C   UNL     1      -1.522  -1.457   0.000  1.00  0.00     0.162 A 
ATOM      6  C   UNL     1      -2.975  -1.086   0.000  1.00  0.00     0.161 A 
ATOM      7  C   UNL     1       0.980  -0.755   0.000  1.00  0.00     0.103 C 
ATOM      8  C   UNL     1       1.385  -2.199   0.000  1.00  0.00     0.024 C 
ATOM      9  C   UNL     1       2.838  -2.570   0.000  1.00  0.00     0.002 C 
ATOM     10  C   UNL     1       3.886  -1.497   0.000  1.00  0.00     0.007 C 
ATOM     11  C   UNL     1       3.481  -0.053   0.000  1.00  0.00    -0.029 C 
ATOM     12  C   UNL     1       3.594   1.443   0.000  1.00  0.00     0.011 C 
ATOM     13  C   UNL     1       4.974   0.095   0.000  1.00  0.00     0.011 C 
ATOM     14  C   UNL     1       2.028   0.318   0.000  1.00  0.00     0.050 C 
ATOM     15  C   UNL     1       0.644   0.761   0.000  1.00  0.00     0.165 C 
ATOM     16  C   UNL     1       0.169   2.134   0.000  1.00  0.00     0.236 C 
ATOM     17  O   UNL     1       1.133   1.262   0.000  1.00  0.00    -0.454 OA
ATOM     18  C   UNL     1       1.349   0.491   0.000  1.00  0.00     0.317 C 
ATOM     19  O   UNL     1       3.528   0.310   0.000  1.00  0.00    -0.251 OA
ENDROOT
BRANCH   1  20
ATOM     20  C   UNL     1      -4.834   0.730   0.000  1.00  0.00     0.017 C 
ATOM     21  C   UNL     1      -5.239   2.174   0.000  1.00  0.00     0.012 C 
ATOM     22  C   UNL     1      -5.882  -0.343   0.000  1.00  0.00     0.012 C 
ENDBRANCH   1  20
BRANCH   6  23
ATOM     23  O   UNL     1      -4.024  -2.159   0.000  1.00  0.00    -0.504 OA
ATOM     24  H   UNL     1       0.000   0.000   0.000  1.00  0.00     0.293 HD
ENDBRANCH   6  23
BRANCH   5  25
ATOM     25  O   UNL     1      -1.117  -2.901   0.000  1.00  0.00    -0.504 OA
ATOM     26  H   UNL     1       0.000   0.000   0.000  1.00  0.00     0.293 HD
ENDBRANCH   5  25
BRANCH  15  27
ATOM     27  O   UNL     1       2.671   2.835   0.000  1.00  0.00    -0.389 OA
ATOM     28  H   UNL     1       0.000   0.000   0.000  1.00  0.00     0.211 HD
ENDBRANCH  15  27
TORSDOF 4
