REMARK SMILES COc1cc(OC)c(C=O)c(OC)c1
REMARK SMILES IDX 3 1 4 2 5 3 8 4 11 5 14 6 2 7 1 8 6 9 7 10 12 11 13 12 9 13
REMARK SMILES IDX 10 14
REMARK H PARENT
ROOT
ATOM      1  C   UNL     1      -1.384  -1.184   0.000  1.00  0.00     0.126 A 
ATOM      2  C   UNL     1      -1.659   0.291   0.000  1.00  0.00     0.093 A 
ATOM      3  C   UNL     1      -0.519   1.266   0.000  1.00  0.00     0.136 A 
ATOM      4  C   UNL     1       0.896   0.766   0.000  1.00  0.00     0.099 A 
ATOM      5  C   UNL     1       1.170  -0.709   0.000  1.00  0.00     0.136 A 
ATOM      6  C   UNL     1       0.030  -1.684   0.000  1.00  0.00     0.093 A 
ENDROOT
BRANCH   1   7
ATOM      7  O   UNL     1      -2.524  -2.159   0.000  1.00  0.00    -0.496 OA
ATOM      8  C   UNL     1      -3.938  -1.660   0.000  1.00  0.00     0.278 C 
ENDBRANCH   1   7
BRANCH   3   9
ATOM      9  O   UNL     1      -0.793   2.740   0.000  1.00  0.00    -0.496 OA
ATOM     10  C   UNL     1      -2.208   3.240   0.000  1.00  0.00     0.278 C 
ENDBRANCH   3   9
BRANCH   5  11
ATOM     11  O   UNL     1       2.584  -1.208   0.000  1.00  0.00    -0.496 OA
ATOM     12  C   UNL     1       2.859  -2.683   0.000  1.00  0.00     0.278 C 
ENDBRANCH   5  11
BRANCH   4  13
ATOM     13  C   UNL     1       2.035   1.741   0.000  1.00  0.00     0.267 C 
ATOM     14  O   UNL     1       3.450   1.242   0.000  1.00  0.00    -0.298 OA
ENDBRANCH   4  13
TORSDOF 4
