REMARK SMILES COC1=CC(=O)c2c(O)c3c(c(O)c2C1=O)C=C(C)OC3
REMARK SMILES IDX 3 1 4 2 5 3 6 4 7 5 8 6 10 7 11 8 17 9 18 10 19 11 20 12
REMARK SMILES IDX 21 13 12 14 14 15 15 16 16 17 2 18 1 19 13 20 9 22
REMARK H PARENT 13 21 9 23
ROOT
ATOM      1  C   UNL     1      -3.351  -0.505   0.000  1.00  0.00     0.170 C 
ATOM      2  C   UNL     1      -3.321   0.995   0.000  1.00  0.00     0.103 C 
ATOM      3  C   UNL     1      -2.007   1.719   0.000  1.00  0.00     0.194 C 
ATOM      4  O   UNL     1      -1.978   3.219   0.000  1.00  0.00    -0.289 OA
ATOM      5  C   UNL     1      -0.724   0.943   0.000  1.00  0.00     0.079 A 
ATOM      6  C   UNL     1       0.590   1.667   0.000  1.00  0.00     0.134 A 
ATOM      7  C   UNL     1       1.874   0.891   0.000  1.00  0.00     0.043 A 
ATOM      8  C   UNL     1       1.844  -0.608   0.000  1.00  0.00     0.031 A 
ATOM      9  C   UNL     1       3.128  -1.384   0.000  1.00  0.00     0.054 C 
ATOM     10  C   UNL     1       4.441  -0.660   0.000  1.00  0.00     0.094 C 
ATOM     11  C   UNL     1       5.725  -1.436   0.000  1.00  0.00     0.087 C 
ATOM     12  O   UNL     1       4.471   0.839   0.000  1.00  0.00    -0.493 OA
ATOM     13  C   UNL     1       3.188   1.615   0.000  1.00  0.00     0.269 C 
ATOM     14  C   UNL     1       0.530  -1.332   0.000  1.00  0.00     0.135 A 
ATOM     15  C   UNL     1      -0.754  -0.556   0.000  1.00  0.00     0.083 A 
ATOM     16  C   UNL     1      -2.067  -1.280   0.000  1.00  0.00     0.232 C 
ATOM     17  O   UNL     1      -2.097  -2.780   0.000  1.00  0.00    -0.285 OA
ENDROOT
BRANCH   1  18
ATOM     18  O   UNL     1      -4.665  -1.228   0.000  1.00  0.00    -0.492 OA
ATOM     19  C   UNL     1      -5.949  -0.453   0.000  1.00  0.00     0.278 C 
ENDBRANCH   1  18
BRANCH  14  20
ATOM     20  O   UNL     1       0.500  -2.832   0.000  1.00  0.00    -0.507 OA
ATOM     21  H   UNL     1       0.000   0.000   0.000  1.00  0.00     0.293 HD
ENDBRANCH  14  20
BRANCH   6  22
ATOM     22  O   UNL     1       0.620   3.167   0.000  1.00  0.00    -0.507 OA
ATOM     23  H   UNL     1       0.000   0.000   0.000  1.00  0.00     0.293 HD
ENDBRANCH   6  22
TORSDOF 3
