REMARK SMILES C=CC[C@@]12C=C(OC)C(=O)[C@@](OC)(C1O)[C@@H](c1cc(OC)c3c(c1)OCO3)[C@@H]2C
REMARK SMILES IDX 4 1 5 2 6 3 9 4 10 5 11 6 14 7 16 8 28 9 29 10 3 11 2 12
REMARK SMILES IDX 1 13 15 14 7 16 8 17 12 18 13 19 17 20 18 21 24 22 19 23
REMARK SMILES IDX 23 24 22 25 25 26 27 27 26 28 20 29 21 30
REMARK H PARENT 15 15
ROOT
ATOM      1  C   UNL     1       2.588   1.123   0.000  1.00  0.00     0.028 C 
ATOM      2  C   UNL     1       3.836   0.291   0.000  1.00  0.00     0.033 C 
ATOM      3  C   UNL     1       3.740  -1.206   0.000  1.00  0.00     0.161 C 
ATOM      4  C   UNL     1       2.395  -1.871   0.000  1.00  0.00     0.232 C 
ATOM      5  O   UNL     1       2.299  -3.368   0.000  1.00  0.00    -0.287 OA
ATOM      6  C   UNL     1       1.147  -1.039   0.000  1.00  0.00     0.167 C 
ATOM      7  C   UNL     1       1.243   0.458   0.000  1.00  0.00     0.166 C 
ATOM      8  C   UNL     1       0.312   0.280   0.000  1.00  0.00     0.066 C 
ATOM      9  C   UNL     1       1.144   1.528   0.000  1.00  0.00     0.010 C 
ATOM     10  C   UNL     1       0.623   2.935   0.000  1.00  0.00     0.009 C 
ENDROOT
BRANCH   1  11
ATOM     11  C   UNL     1       2.684   2.620   0.000  1.00  0.00     0.041 C 
BRANCH  11  12
ATOM     12  C   UNL     1       4.029   3.285   0.000  1.00  0.00    -0.034 C 
ATOM     13  C   UNL     1       4.125   4.782   0.000  1.00  0.00     0.004 C 
ENDBRANCH  11  12
ENDBRANCH   1  11
BRANCH   7  14
ATOM     14  O   UNL     1      -0.005   1.290   0.000  1.00  0.00    -0.389 OA
ATOM     15  H   UNL     1       0.000   0.000   0.000  1.00  0.00     0.211 HD
ENDBRANCH   7  14
BRANCH   3  16
ATOM     16  O   UNL     1       4.988  -2.038   0.000  1.00  0.00    -0.493 OA
ATOM     17  C   UNL     1       4.892  -3.535   0.000  1.00  0.00     0.278 C 
ENDBRANCH   3  16
BRANCH   6  18
ATOM     18  O   UNL     1      -0.197  -1.704   0.000  1.00  0.00    -0.366 OA
ATOM     19  C   UNL     1      -0.294  -3.201   0.000  1.00  0.00     0.196 C 
ENDBRANCH   6  18
BRANCH   8  20
ATOM     20  C   UNL     1      -1.187   0.219   0.000  1.00  0.00    -0.033 A 
ATOM     21  C   UNL     1      -1.884  -1.109   0.000  1.00  0.00     0.054 A 
ATOM     22  C   UNL     1      -1.989   1.487   0.000  1.00  0.00     0.055 A 
ATOM     23  C   UNL     1      -3.382  -1.170   0.000  1.00  0.00     0.165 A 
ATOM     24  C   UNL     1      -3.488   1.426   0.000  1.00  0.00     0.169 A 
ATOM     25  C   UNL     1      -4.184   0.098   0.000  1.00  0.00     0.207 A 
ATOM     26  O   UNL     1      -4.535   2.499   0.000  1.00  0.00    -0.453 OA
ATOM     27  O   UNL     1      -5.663   0.350   0.000  1.00  0.00    -0.450 OA
ATOM     28  C   UNL     1      -5.880   1.834   0.000  1.00  0.00     0.468 C 
BRANCH  23  29
ATOM     29  O   UNL     1      -4.079  -2.498   0.000  1.00  0.00    -0.493 OA
ATOM     30  C   UNL     1      -3.277  -3.766   0.000  1.00  0.00     0.278 C 
ENDBRANCH  23  29
ENDBRANCH   8  20
TORSDOF 7
