REMARK SMILES COCc1ccc(C)c2c1C(=O)[C@H](OC(C)=O)[C@@H](C(C)(C)OC(C)=O)C2
REMARK SMILES IDX 4 1 5 2 6 3 7 4 8 5 9 6 10 7 11 8 12 9 13 10 18 11 26 12
REMARK SMILES IDX 3 13 2 14 1 15 14 16 15 17 16 18 17 19 19 20 20 21 21 22
REMARK SMILES IDX 22 23 23 24 24 25 25 26
REMARK H PARENT
ROOT
ATOM      1  C   UNL     1      -3.052   0.920   0.000  1.00  0.00    -0.011 A 
ATOM      2  C   UNL     1      -3.531   2.341   0.000  1.00  0.00     0.007 A 
ATOM      3  C   UNL     1      -2.539   3.467   0.000  1.00  0.00     0.004 A 
ATOM      4  C   UNL     1      -1.069   3.171   0.000  1.00  0.00    -0.047 A 
ATOM      5  C   UNL     1      -0.077   4.296   0.000  1.00  0.00     0.044 C 
ATOM      6  C   UNL     1      -0.590   1.750   0.000  1.00  0.00    -0.033 A 
ATOM      7  C   UNL     1      -1.581   0.624   0.000  1.00  0.00     0.031 A 
ATOM      8  C   UNL     1      -1.102  -0.798   0.000  1.00  0.00     0.204 C 
ATOM      9  O   UNL     1      -2.094  -1.923   0.000  1.00  0.00    -0.290 OA
ATOM     10  C   UNL     1       0.368  -1.093   0.000  1.00  0.00     0.255 C 
ATOM     11  C   UNL     1       1.360   0.032   0.000  1.00  0.00     0.086 C 
ATOM     12  C   UNL     1       0.881   1.454   0.000  1.00  0.00     0.048 C 
ENDROOT
BRANCH   1  13
ATOM     13  C   UNL     1      -4.043  -0.206   0.000  1.00  0.00     0.196 C 
BRANCH  13  14
ATOM     14  O   UNL     1      -5.514   0.090   0.000  1.00  0.00    -0.380 OA
ATOM     15  C   UNL     1      -6.505  -1.036   0.000  1.00  0.00     0.195 C 
ENDBRANCH  13  14
ENDBRANCH   1  13
BRANCH  10  16
ATOM     16  O   UNL     1       0.848  -2.515   0.000  1.00  0.00    -0.454 OA
BRANCH  16  17
ATOM     17  C   UNL     1      -0.144  -3.640   0.000  1.00  0.00     0.303 C 
ATOM     18  C   UNL     1       0.335  -5.062   0.000  1.00  0.00     0.139 C 
ATOM     19  O   UNL     1      -1.614  -3.345   0.000  1.00  0.00    -0.253 OA
ENDBRANCH  16  17
ENDBRANCH  10  16
BRANCH  11  20
ATOM     20  C   UNL     1       2.830  -0.264   0.000  1.00  0.00     0.114 C 
ATOM     21  C   UNL     1       3.126   1.207   0.000  1.00  0.00     0.057 C 
ATOM     22  C   UNL     1       2.535  -1.734   0.000  1.00  0.00     0.057 C 
BRANCH  20  23
ATOM     23  O   UNL     1       4.301  -0.559   0.000  1.00  0.00    -0.459 OA
BRANCH  23  24
ATOM     24  C   UNL     1       5.293   0.566   0.000  1.00  0.00     0.303 C 
ATOM     25  C   UNL     1       6.763   0.270   0.000  1.00  0.00     0.139 C 
ATOM     26  O   UNL     1       4.813   1.988   0.000  1.00  0.00    -0.253 OA
ENDBRANCH  23  24
ENDBRANCH  20  23
ENDBRANCH  11  20
TORSDOF 7
