REMARK SMILES O=c1cc(-c2ccccc2)oc2cccc(O)c12
REMARK SMILES IDX 1 1 2 2 3 3 4 4 11 5 12 6 13 7 14 8 15 9 16 10 18 11 5 12
REMARK SMILES IDX 6 13 10 14 7 15 9 16 8 17 17 18
REMARK H PARENT 17 19
ROOT
ATOM      1  O   UNL     1       1.901   2.872   0.000  1.00  0.00    -0.289 OA
ATOM      2  C   UNL     1       1.237   1.527   0.000  1.00  0.00     0.197 A 
ATOM      3  C   UNL     1      -0.260   1.429   0.000  1.00  0.00     0.100 A 
ATOM      4  C   UNL     1      -0.924   0.085   0.000  1.00  0.00     0.138 A 
ATOM      5  O   UNL     1      -0.091  -1.163   0.000  1.00  0.00    -0.456 OA
ATOM      6  C   UNL     1       1.405  -1.066   0.000  1.00  0.00     0.142 A 
ATOM      7  C   UNL     1       2.238  -2.314   0.000  1.00  0.00     0.048 A 
ATOM      8  C   UNL     1       3.735  -2.216   0.000  1.00  0.00     0.008 A 
ATOM      9  C   UNL     1       4.399  -0.871   0.000  1.00  0.00     0.047 A 
ATOM     10  C   UNL     1       3.566   0.376   0.000  1.00  0.00     0.130 A 
ATOM     11  C   UNL     1       2.070   0.279   0.000  1.00  0.00     0.106 A 
ENDROOT
BRANCH   4  12
ATOM     12  C   UNL     1      -2.421  -0.013   0.000  1.00  0.00     0.017 A 
ATOM     13  C   UNL     1      -3.253   1.235   0.000  1.00  0.00     0.012 A 
ATOM     14  C   UNL     1      -3.085  -1.357   0.000  1.00  0.00     0.012 A 
ATOM     15  C   UNL     1      -4.750   1.138   0.000  1.00  0.00     0.001 A 
ATOM     16  C   UNL     1      -4.582  -1.455   0.000  1.00  0.00     0.001 A 
ATOM     17  C   UNL     1      -5.415  -0.207   0.000  1.00  0.00     0.000 A 
ENDBRANCH   4  12
BRANCH  10  18
ATOM     18  O   UNL     1       4.231   1.721   0.000  1.00  0.00    -0.507 OA
ATOM     19  H   UNL     1       0.000   0.000   0.000  1.00  0.00     0.293 HD
ENDBRANCH  10  18
TORSDOF 2
