REMARK SMILES C=C(C(=O)OC)[C@@H]1C[C@H]2N(CC[C@]23C(=O)Nc2ccccc23)C[C@@H]1CC
REMARK SMILES IDX 1 1 2 2 3 3 4 4 5 5 6 6 7 7 8 8 24 9 9 10 23 11 10 12 13 13
REMARK SMILES IDX 11 14 12 15 14 16 22 17 16 18 21 19 17 20 20 21 18 22 19 23
REMARK SMILES IDX 15 24 25 26 26 27
REMARK H PARENT 16 25
ROOT
ATOM      1  C   UNL     1      -4.835   0.154   0.000  1.00  0.00     0.020 C 
ATOM      2  C   UNL     1      -3.465  -0.457   0.000  1.00  0.00     0.033 C 
ENDROOT
BRANCH   2   3
ATOM      3  C   UNL     1      -3.310  -1.948   0.000  1.00  0.00     0.333 C 
ATOM      4  O   UNL     1      -1.940  -2.559   0.000  1.00  0.00    -0.247 OA
BRANCH   3   5
ATOM      5  O   UNL     1      -4.524  -2.829   0.000  1.00  0.00    -0.466 OA
ATOM      6  C   UNL     1      -4.368  -4.321   0.000  1.00  0.00     0.282 C 
ENDBRANCH   3   5
ENDBRANCH   2   3
BRANCH   2   7
ATOM      7  C   UNL     1      -2.251   0.424   0.000  1.00  0.00     0.032 C 
ATOM      8  C   UNL     1      -0.881  -0.186   0.000  1.00  0.00     0.029 C 
ATOM      9  C   UNL     1      -2.407   1.916   0.000  1.00  0.00     0.011 C 
ATOM     10  C   UNL     1       0.333   0.694   0.000  1.00  0.00     0.077 C 
ATOM     11  C   UNL     1      -1.193   2.797   0.000  1.00  0.00     0.089 C 
ATOM     12  N   UNL     1       0.177   2.186   0.000  1.00  0.00    -0.299 NA
ATOM     13  C   UNL     1       1.800   0.382   0.000  1.00  0.00     0.093 C 
ATOM     14  C   UNL     1       1.548   2.796   0.000  1.00  0.00     0.086 C 
ATOM     15  C   UNL     1       2.550   1.680   0.000  1.00  0.00     0.039 C 
ATOM     16  C   UNL     1       1.049  -0.917   0.000  1.00  0.00     0.236 C 
ATOM     17  C   UNL     1       3.267   0.069   0.000  1.00  0.00    -0.007 A 
ATOM     18  N   UNL     1       2.052  -2.032   0.000  1.00  0.00    -0.325 N 
ATOM     19  C   UNL     1       4.481   0.950   0.000  1.00  0.00     0.007 A 
ATOM     20  C   UNL     1       3.423  -1.423   0.000  1.00  0.00     0.045 A 
ATOM     21  C   UNL     1       5.851   0.339   0.000  1.00  0.00     0.000 A 
ATOM     22  C   UNL     1       4.793  -2.034   0.000  1.00  0.00     0.026 A 
ATOM     23  C   UNL     1       6.007  -1.153   0.000  1.00  0.00     0.002 A 
ATOM     24  O   UNL     1      -0.443  -1.073   0.000  1.00  0.00    -0.274 OA
ATOM     25  H   UNL     1       0.000   0.000   0.000  1.00  0.00     0.169 HD
BRANCH   9  26
ATOM     26  C   UNL     1      -3.777   2.527   0.000  1.00  0.00     0.002 C 
ATOM     27  C   UNL     1      -3.933   4.019   0.000  1.00  0.00     0.004 C 
ENDBRANCH   9  26
ENDBRANCH   2   7
TORSDOF 4
