REMARK SMILES CO[C@]12CC[C@]3(CO1)C1CCC[C@H](OC(C)=O)C1C[C@H]1OC(=O)[C@]2(C)C13
REMARK SMILES IDX 3 1 4 2 5 3 6 4 7 5 8 6 9 7 10 8 11 9 12 10 13 11 18 12
REMARK SMILES IDX 19 13 20 14 21 15 22 16 23 17 24 18 25 19 26 20 2 21 1 22
REMARK SMILES IDX 14 23 15 24 16 25 17 26
REMARK H PARENT
ROOT
ATOM      1  C   UNL     1      -3.476  -0.481   0.000  1.00  0.00     0.184 C 
ATOM      2  C   UNL     1      -3.021  -1.911   0.000  1.00  0.00     0.068 C 
ATOM      3  C   UNL     1      -1.555  -2.231   0.000  1.00  0.00     0.016 C 
ATOM      4  C   UNL     1      -0.545  -1.122   0.000  1.00  0.00     0.005 C 
ATOM      5  C   UNL     1      -1.337  -0.897   0.000  1.00  0.00     0.171 C 
ATOM      6  O   UNL     1      -2.662  -0.608   0.000  1.00  0.00    -0.348 OA
ATOM      7  C   UNL     1       0.962  -1.146   0.000  1.00  0.00     0.005 C 
ATOM      8  C   UNL     1       1.564  -2.520   0.000  1.00  0.00     0.005 C 
ATOM      9  C   UNL     1       3.054  -2.686   0.000  1.00  0.00     0.004 C 
ATOM     10  C   UNL     1       3.943  -1.477   0.000  1.00  0.00     0.045 C 
ATOM     11  C   UNL     1       3.341  -0.103   0.000  1.00  0.00     0.180 C 
ATOM     12  C   UNL     1       1.850   0.062   0.000  1.00  0.00     0.037 C 
ATOM     13  C   UNL     1       1.248   1.436   0.000  1.00  0.00     0.053 C 
ATOM     14  C   UNL     1      -0.242   1.602   0.000  1.00  0.00     0.182 C 
ATOM     15  O   UNL     1      -1.240   2.722   0.000  1.00  0.00    -0.461 OA
ATOM     16  C   UNL     1      -2.614   2.120   0.000  1.00  0.00     0.318 C 
ATOM     17  O   UNL     1      -3.908   2.878   0.000  1.00  0.00    -0.251 OA
ATOM     18  C   UNL     1      -2.466   0.628   0.000  1.00  0.00     0.126 C 
ATOM     19  C   UNL     1      -3.889   1.099   0.000  1.00  0.00     0.030 C 
ATOM     20  C   UNL     1      -1.000   0.307   0.000  1.00  0.00     0.061 C 
ENDROOT
BRANCH   1  21
ATOM     21  O   UNL     1      -4.941  -0.161   0.000  1.00  0.00    -0.352 OA
ATOM     22  C   UNL     1      -5.951  -1.270   0.000  1.00  0.00     0.198 C 
ENDBRANCH   1  21
BRANCH  11  23
ATOM     23  O   UNL     1       4.230   1.105   0.000  1.00  0.00    -0.462 OA
BRANCH  23  24
ATOM     24  C   UNL     1       5.721   0.939   0.000  1.00  0.00     0.302 C 
ATOM     25  C   UNL     1       6.610   2.148   0.000  1.00  0.00     0.139 C 
ATOM     26  O   UNL     1       6.323  -0.434   0.000  1.00  0.00    -0.253 OA
ENDBRANCH  23  24
ENDBRANCH  11  23
TORSDOF 3
