REMARK SMILES C[C@H]1[C@H](C)CC[C@]2(C(=O)O[C@@H]3O[C@H](CO)[C@@H](O)[C@H](O)[C@H]3O)CC[C@]3(C(=O)O)C(=CC[C@@H]4[C@@]5(C)CC[C@H](O[C@@H]6O[C@H](CO)[C@@H](O)[C@H](O)[C@H]6O)C(C)(C)[C@@H]5CC[C@]43C)[C@H]12
REMARK SMILES IDX 1 1 2 2 3 3 4 4 5 5 6 6 7 7 22 8 23 9 24 10 28 11 29 12
REMARK SMILES IDX 30 13 31 14 32 15 33 16 34 17 35 18 36 19 49 20 50 21 51 22
REMARK SMILES IDX 52 23 53 24 54 25 55 26 56 27 57 28 8 29 9 30 10 31 11 32
REMARK SMILES IDX 12 33 20 34 13 35 18 36 16 37 21 38 14 40 15 41 19 43 17 45
REMARK SMILES IDX 25 47 26 48 27 49 37 51 38 52 39 53 47 54 40 55 45 56 43 57
REMARK SMILES IDX 48 58 41 60 42 61 46 63 44 65
REMARK H PARENT 21 39 15 42 19 44 17 46 27 50 48 59 42 62 46 64 44 66
ROOT
ATOM      1  C   UNL     1      -1.626  -4.971   0.000  1.00  0.00     0.008 C 
ATOM      2  C   UNL     1      -2.886  -4.157   0.000  1.00  0.00    -0.003 C 
ATOM      3  C   UNL     1      -4.221  -4.840   0.000  1.00  0.00    -0.011 C 
ATOM      4  C   UNL     1      -4.297  -6.338   0.000  1.00  0.00     0.008 C 
ATOM      5  C   UNL     1      -5.481  -4.026   0.000  1.00  0.00     0.005 C 
ATOM      6  C   UNL     1      -5.405  -2.527   0.000  1.00  0.00     0.020 C 
ATOM      7  C   UNL     1      -4.070  -1.844   0.000  1.00  0.00     0.075 C 
ATOM      8  C   UNL     1      -3.994  -0.346   0.000  1.00  0.00     0.021 C 
ATOM      9  C   UNL     1      -2.659   0.338   0.000  1.00  0.00     0.025 C 
ATOM     10  C   UNL     1      -1.399  -0.477   0.000  1.00  0.00     0.095 C 
ATOM     11  C   UNL     1      -1.475  -1.975   0.000  1.00  0.00    -0.052 C 
ATOM     12  C   UNL     1      -0.215  -2.790   0.000  1.00  0.00    -0.026 C 
ATOM     13  C   UNL     1       1.120  -2.106   0.000  1.00  0.00     0.032 C 
ATOM     14  C   UNL     1       1.196  -0.608   0.000  1.00  0.00     0.006 C 
ATOM     15  C   UNL     1       2.531   0.075   0.000  1.00  0.00    -0.025 C 
ATOM     16  C   UNL     1       2.455  -1.423   0.000  1.00  0.00     0.012 C 
ATOM     17  C   UNL     1       3.790  -0.740   0.000  1.00  0.00     0.010 C 
ATOM     18  C   UNL     1       5.126  -0.056   0.000  1.00  0.00     0.033 C 
ATOM     19  C   UNL     1       5.201   1.442   0.000  1.00  0.00     0.127 C 
ATOM     20  C   UNL     1       3.942   2.257   0.000  1.00  0.00    -0.006 C 
ATOM     21  C   UNL     1       3.037   3.453   0.000  1.00  0.00     0.014 C 
ATOM     22  C   UNL     1       4.963   3.356   0.000  1.00  0.00     0.014 C 
ATOM     23  C   UNL     1       2.607   1.573   0.000  1.00  0.00     0.003 C 
ATOM     24  C   UNL     1       1.347   2.388   0.000  1.00  0.00     0.005 C 
ATOM     25  C   UNL     1       0.012   1.704   0.000  1.00  0.00     0.009 C 
ATOM     26  C   UNL     1      -0.064   0.206   0.000  1.00  0.00    -0.009 C 
ATOM     27  C   UNL     1      -1.323   1.021   0.000  1.00  0.00     0.013 C 
ATOM     28  C   UNL     1      -2.810  -2.659   0.000  1.00  0.00     0.036 C 
ENDROOT
BRANCH   7  29
ATOM     29  C   UNL     1      -5.329  -1.029   0.000  1.00  0.00     0.315 C 
ATOM     30  O   UNL     1      -6.664  -1.713   0.000  1.00  0.00    -0.252 OA
BRANCH  29  31
ATOM     31  O   UNL     1      -5.253   0.469   0.000  1.00  0.00    -0.432 OA
BRANCH  31  32
ATOM     32  C   UNL     1      -6.513   1.283   0.000  1.00  0.00     0.342 C 
ATOM     33  O   UNL     1      -6.437   2.781   0.000  1.00  0.00    -0.332 OA
ATOM     34  C   UNL     1      -7.848   0.600   0.000  1.00  0.00     0.214 C 
ATOM     35  C   UNL     1      -7.697   3.596   0.000  1.00  0.00     0.179 C 
ATOM     36  C   UNL     1      -9.108   1.415   0.000  1.00  0.00     0.180 C 
ATOM     37  C   UNL     1      -9.032   2.913   0.000  1.00  0.00     0.177 C 
BRANCH  34  38
ATOM     38  O   UNL     1      -7.924  -0.898   0.000  1.00  0.00    -0.384 OA
ATOM     39  H   UNL     1       0.000   0.000   0.000  1.00  0.00     0.211 HD
ENDBRANCH  34  38
BRANCH  35  40
ATOM     40  C   UNL     1      -7.621   5.094   0.000  1.00  0.00     0.191 C 
BRANCH  40  41
ATOM     41  O   UNL     1      -6.286   5.778   0.000  1.00  0.00    -0.394 OA
ATOM     42  H   UNL     1       0.000   0.000   0.000  1.00  0.00     0.210 HD
ENDBRANCH  40  41
ENDBRANCH  35  40
BRANCH  36  43
ATOM     43  O   UNL     1     -10.443   0.731   0.000  1.00  0.00    -0.387 OA
ATOM     44  H   UNL     1       0.000   0.000   0.000  1.00  0.00     0.211 HD
ENDBRANCH  36  43
BRANCH  37  45
ATOM     45  O   UNL     1     -10.291   3.727   0.000  1.00  0.00    -0.387 OA
ATOM     46  H   UNL     1       0.000   0.000   0.000  1.00  0.00     0.211 HD
ENDBRANCH  37  45
ENDBRANCH  31  32
ENDBRANCH  29  31
ENDBRANCH   7  29
BRANCH  10  47
ATOM     47  C   UNL     1      -0.140  -1.292   0.000  1.00  0.00     0.314 C 
ATOM     48  O   UNL     1       1.321  -0.952   0.000  1.00  0.00    -0.251 OA
BRANCH  47  49
ATOM     49  O   UNL     1       0.014  -2.074   0.000  1.00  0.00    -0.481 OA
ATOM     50  H   UNL     1       0.000   0.000   0.000  1.00  0.00     0.296 HD
ENDBRANCH  47  49
ENDBRANCH  10  47
BRANCH  19  51
ATOM     51  O   UNL     1       6.537   2.126   0.000  1.00  0.00    -0.346 OA
BRANCH  51  52
ATOM     52  C   UNL     1       7.796   1.311   0.000  1.00  0.00     0.282 C 
ATOM     53  O   UNL     1       7.720  -0.187   0.000  1.00  0.00    -0.341 OA
ATOM     54  C   UNL     1       9.131   1.994   0.000  1.00  0.00     0.202 C 
ATOM     55  C   UNL     1       8.980  -1.002   0.000  1.00  0.00     0.178 C 
ATOM     56  C   UNL     1      10.391   1.180   0.000  1.00  0.00     0.179 C 
ATOM     57  C   UNL     1      10.315  -0.319   0.000  1.00  0.00     0.177 C 
BRANCH  54  58
ATOM     58  O   UNL     1       9.207   3.492   0.000  1.00  0.00    -0.385 OA
ATOM     59  H   UNL     1       0.000   0.000   0.000  1.00  0.00     0.211 HD
ENDBRANCH  54  58
BRANCH  55  60
ATOM     60  C   UNL     1       8.904  -2.500   0.000  1.00  0.00     0.191 C 
BRANCH  60  61
ATOM     61  O   UNL     1       7.569  -3.183   0.000  1.00  0.00    -0.394 OA
ATOM     62  H   UNL     1       0.000   0.000   0.000  1.00  0.00     0.210 HD
ENDBRANCH  60  61
ENDBRANCH  55  60
BRANCH  56  63
ATOM     63  O   UNL     1      11.726   1.863   0.000  1.00  0.00    -0.387 OA
ATOM     64  H   UNL     1       0.000   0.000   0.000  1.00  0.00     0.211 HD
ENDBRANCH  56  63
BRANCH  57  65
ATOM     65  O   UNL     1      11.575  -1.133   0.000  1.00  0.00    -0.387 OA
ATOM     66  H   UNL     1       0.000   0.000   0.000  1.00  0.00     0.211 HD
ENDBRANCH  57  65
ENDBRANCH  51  52
ENDBRANCH  19  51
TORSDOF 17
