REMARK SMILES C=C/C(C)=C\C[C@]1(C)[C@H](C)[C@@H](OC(=O)CCC)[C@H](OC(C)=O)[C@@]23C(=C[C@H](O)C[C@@H]12)[C@@H](OC(C)=O)O[C@H]3OC(C)=O
REMARK SMILES IDX 7 1 8 2 9 3 10 4 11 5 18 6 23 7 24 8 25 9 26 10 28 11 29 12
REMARK SMILES IDX 30 13 35 14 36 15 6 16 5 17 3 18 4 19 2 20 1 21 12 22 13 23
REMARK SMILES IDX 14 24 15 25 16 26 17 27 19 28 20 29 21 30 22 31 27 32 37 34
REMARK SMILES IDX 38 35 39 36 40 37 31 38 32 39 33 40 34 41
REMARK H PARENT 27 33
ROOT
ATOM      1  C   UNL     1       1.529  -1.612   0.000  1.00  0.00    -0.019 C 
ATOM      2  C   UNL     1       2.022  -3.028   0.000  1.00  0.00     0.012 C 
ATOM      3  C   UNL     1       1.550  -0.112   0.000  1.00  0.00     0.037 C 
ATOM      4  C   UNL     1       2.859   0.620   0.000  1.00  0.00     0.012 C 
ATOM      5  C   UNL     1       0.261   0.656   0.000  1.00  0.00     0.222 C 
ATOM      6  C   UNL     1      -1.048  -0.076   0.000  1.00  0.00     0.234 C 
ATOM      7  C   UNL     1      -1.069  -1.576   0.000  1.00  0.00     0.104 C 
ATOM      8  C   UNL     1      -2.378  -2.308   0.000  1.00  0.00     0.013 C 
ATOM      9  C   UNL     1      -2.399  -3.808   0.000  1.00  0.00     0.011 C 
ATOM     10  C   UNL     1      -1.111  -4.576   0.000  1.00  0.00     0.137 C 
ATOM     11  C   UNL     1       0.199  -3.844   0.000  1.00  0.00     0.041 C 
ATOM     12  C   UNL     1       0.220  -2.344   0.000  1.00  0.00     0.019 C 
ATOM     13  C   UNL     1      -3.479  -1.289   0.000  1.00  0.00     0.343 C 
ATOM     14  O   UNL     1      -2.850   0.073   0.000  1.00  0.00    -0.298 OA
ATOM     15  C   UNL     1      -1.361  -0.105   0.000  1.00  0.00     0.329 C 
ENDROOT
BRANCH   1  16
ATOM     16  C   UNL     1       3.009  -1.372   0.000  1.00  0.00     0.035 C 
BRANCH  16  17
ATOM     17  C   UNL     1       3.958  -2.534   0.000  1.00  0.00    -0.023 C 
BRANCH  17  18
ATOM     18  C   UNL     1       5.438  -2.294   0.000  1.00  0.00    -0.056 C 
ATOM     19  C   UNL     1       6.386  -3.456   0.000  1.00  0.00     0.044 C 
BRANCH  18  20
ATOM     20  C   UNL     1       5.971  -0.892   0.000  1.00  0.00    -0.005 C 
ATOM     21  C   UNL     1       7.452  -0.652   0.000  1.00  0.00     0.009 C 
ENDBRANCH  18  20
ENDBRANCH  17  18
ENDBRANCH  16  17
ENDBRANCH   1  16
BRANCH   5  22
ATOM     22  O   UNL     1       0.282   2.156   0.000  1.00  0.00    -0.458 OA
BRANCH  22  23
ATOM     23  C   UNL     1       1.591   2.888   0.000  1.00  0.00     0.306 C 
ATOM     24  O   UNL     1       2.880   2.120   0.000  1.00  0.00    -0.252 OA
BRANCH  23  25
ATOM     25  C   UNL     1       1.612   4.388   0.000  1.00  0.00     0.122 C 
BRANCH  25  26
ATOM     26  C   UNL     1       2.921   5.120   0.000  1.00  0.00     0.008 C 
ATOM     27  C   UNL     1       2.942   6.619   0.000  1.00  0.00     0.004 C 
ENDBRANCH  25  26
ENDBRANCH  23  25
ENDBRANCH  22  23
ENDBRANCH   5  22
BRANCH   6  28
ATOM     28  O   UNL     1      -2.337   0.692   0.000  1.00  0.00    -0.457 OA
BRANCH  28  29
ATOM     29  C   UNL     1      -2.316   2.192   0.000  1.00  0.00     0.303 C 
ATOM     30  C   UNL     1      -3.605   2.959   0.000  1.00  0.00     0.139 C 
ATOM     31  O   UNL     1      -1.223   3.219   0.000  1.00  0.00    -0.253 OA
ENDBRANCH  28  29
ENDBRANCH   6  28
BRANCH  10  32
ATOM     32  O   UNL     1      -1.131  -6.075   0.000  1.00  0.00    -0.389 OA
ATOM     33  H   UNL     1       0.000   0.000   0.000  1.00  0.00     0.211 HD
ENDBRANCH  10  32
BRANCH  15  34
ATOM     34  O   UNL     1      -0.342   0.996   0.000  1.00  0.00    -0.435 OA
BRANCH  34  35
ATOM     35  C   UNL     1      -0.785   2.429   0.000  1.00  0.00     0.304 C 
ATOM     36  C   UNL     1       0.234   3.530   0.000  1.00  0.00     0.139 C 
ATOM     37  O   UNL     1      -2.124   3.105   0.000  1.00  0.00    -0.253 OA
ENDBRANCH  34  35
ENDBRANCH  15  34
BRANCH  13  38
ATOM     38  O   UNL     1      -4.950  -1.581   0.000  1.00  0.00    -0.432 OA
BRANCH  38  39
ATOM     39  C   UNL     1      -5.939  -0.452   0.000  1.00  0.00     0.305 C 
ATOM     40  C   UNL     1      -7.410  -0.744   0.000  1.00  0.00     0.139 C 
ATOM     41  O   UNL     1      -5.455   0.968   0.000  1.00  0.00    -0.253 OA
ENDBRANCH  38  39
ENDBRANCH  13  38
TORSDOF 15
