REMARK SMILES COc1cc([C@H]2OC[C@H]3[C@@H]2CO[C@@H]3c2cc(OC)c(O)c(OC)c2)cc(OC)c1O
REMARK SMILES IDX 6 1 7 2 8 3 9 4 10 5 11 6 12 7 13 8 5 9 3 10 29 11 4 12
REMARK SMILES IDX 26 13 25 14 2 15 1 16 30 17 27 19 28 20 14 21 15 22 24 23
REMARK SMILES IDX 16 24 21 25 19 26 17 27 18 28 22 29 23 30 20 31
REMARK H PARENT 30 18 20 32
ROOT
ATOM      1  C   UNL     1       1.681  -0.605   0.000  1.00  0.00     0.154 C 
ATOM      2  O   UNL     1       1.068  -1.974   0.000  1.00  0.00    -0.373 OA
ATOM      3  C   UNL     1      -0.424  -1.815   0.000  1.00  0.00     0.168 C 
ATOM      4  C   UNL     1      -0.733  -0.347   0.000  1.00  0.00     0.057 C 
ATOM      5  C   UNL     1       0.568   0.401   0.000  1.00  0.00     0.057 C 
ATOM      6  C   UNL     1       0.259   1.869   0.000  1.00  0.00     0.168 C 
ATOM      7  O   UNL     1      -1.232   2.028   0.000  1.00  0.00    -0.373 OA
ATOM      8  C   UNL     1      -1.845   0.659   0.000  1.00  0.00     0.154 C 
ENDROOT
BRANCH   1   9
ATOM      9  C   UNL     1       3.148  -0.297   0.000  1.00  0.00    -0.011 A 
ATOM     10  C   UNL     1       5.083   1.438   0.000  1.00  0.00     0.164 A 
ATOM     11  C   UNL     1       6.084   0.321   0.000  1.00  0.00     0.200 A 
ATOM     12  C   UNL     1       3.615   1.129   0.000  1.00  0.00     0.057 A 
ATOM     13  C   UNL     1       5.618  -1.105   0.000  1.00  0.00     0.164 A 
ATOM     14  C   UNL     1       4.150  -1.413   0.000  1.00  0.00     0.057 A 
BRANCH  10  15
ATOM     15  O   UNL     1       5.549   2.864   0.000  1.00  0.00    -0.493 OA
ATOM     16  C   UNL     1       7.017   3.172   0.000  1.00  0.00     0.278 C 
ENDBRANCH  10  15
BRANCH  11  17
ATOM     17  O   UNL     1       7.552   0.630   0.000  1.00  0.00    -0.502 OA
ATOM     18  H   UNL     1       0.000   0.000   0.000  1.00  0.00     0.293 HD
ENDBRANCH  11  17
BRANCH  13  19
ATOM     19  O   UNL     1       6.619  -2.221   0.000  1.00  0.00    -0.493 OA
ATOM     20  C   UNL     1       6.153  -3.647   0.000  1.00  0.00     0.278 C 
ENDBRANCH  13  19
ENDBRANCH   1   9
BRANCH   8  21
ATOM     21  C   UNL     1      -3.313   0.350   0.000  1.00  0.00    -0.011 A 
ATOM     22  C   UNL     1      -4.314   1.467   0.000  1.00  0.00     0.057 A 
ATOM     23  C   UNL     1      -3.780  -1.075   0.000  1.00  0.00     0.057 A 
ATOM     24  C   UNL     1      -5.782   1.158   0.000  1.00  0.00     0.164 A 
ATOM     25  C   UNL     1      -5.247  -1.384   0.000  1.00  0.00     0.164 A 
ATOM     26  C   UNL     1      -6.249  -0.267   0.000  1.00  0.00     0.200 A 
BRANCH  24  27
ATOM     27  O   UNL     1      -6.784   2.275   0.000  1.00  0.00    -0.493 OA
ATOM     28  C   UNL     1      -6.317   3.701   0.000  1.00  0.00     0.278 C 
ENDBRANCH  24  27
BRANCH  25  29
ATOM     29  O   UNL     1      -5.714  -2.810   0.000  1.00  0.00    -0.493 OA
ATOM     30  C   UNL     1      -4.713  -3.926   0.000  1.00  0.00     0.278 C 
ENDBRANCH  25  29
BRANCH  26  31
ATOM     31  O   UNL     1      -7.717  -0.576   0.000  1.00  0.00    -0.502 OA
ATOM     32  H   UNL     1       0.000   0.000   0.000  1.00  0.00     0.293 HD
ENDBRANCH  26  31
ENDBRANCH   8  21
TORSDOF 8
