REMARK SMILES CC1=CCCC(C)=CCC(C)(C)C=CC1
REMARK SMILES IDX 4 1 3 2 2 3 1 4 15 5 14 6 13 7 5 9 6 10 7 11 8 12 9 13 10 14
REMARK SMILES IDX 11 15 12 16
REMARK H PARENT
REMARK Flexibility Score:   24.900
ROOT
ATOM      1  C   UNL     1       2.220   1.916   0.000  1.00  0.00     0.032 C 
ENDROOT
BRANCH   1   2
ATOM      2  C   UNL     1       2.907   0.583   0.000  1.00  0.00    -0.027 C 
BRANCH   2   3
ATOM      3  C   UNL     1       2.765  -0.910   0.000  1.00  0.00    -0.074 C 
ATOM      4  C   UNL     1       4.158  -1.467   0.000  1.00  0.00     0.039 C 
BRANCH   3   5
ATOM      5  C   UNL     1       1.838  -2.090   0.000  1.00  0.00     0.057 C 
BRANCH   5   6
ATOM      6  C   UNL     1       0.421  -2.581   0.000  1.00  0.00    -0.026 C 
BRANCH   6   7
ATOM      7  C   UNL     1      -1.037  -2.228   0.000  1.00  0.00    -0.024 CG0
ATOM      8  G   UNL     1      -2.072  -1.142   0.000  1.00  0.00     0.000 G0
ENDBRANCH   6   7
ENDBRANCH   5   6
ENDBRANCH   3   5
ENDBRANCH   2   3
ENDBRANCH   1   2
BRANCH   1   9
ATOM      9  C   UNL     1       0.920   2.666   0.000  1.00  0.00     0.034 C 
BRANCH   9  10
ATOM     10  C   UNL     1      -0.578   2.594   0.000  1.00  0.00    -0.077 C 
ATOM     11  C   UNL     1      -1.069   4.011   0.000  1.00  0.00     0.039 C 
BRANCH  10  12
ATOM     12  C   UNL     1      -1.800   1.723   0.000  1.00  0.00    -0.027 C 
BRANCH  12  13
ATOM     13  C   UNL     1      -2.357   0.331   0.000  1.00  0.00     0.038 C 
BRANCH  13  14
ATOM     14  C   UNL     1      -2.072  -1.142   0.000  1.00  0.00    -0.014 CG0
ATOM     15  C   UNL     1      -2.759  -2.476   0.000  1.00  0.00     0.016 C 
ATOM     16  C   UNL     1      -3.557  -0.929   0.000  1.00  0.00     0.016 C 
ATOM     17  G   UNL     1      -1.037  -2.228   0.000  1.00  0.00     0.000 G0
ENDBRANCH  13  14
ENDBRANCH  12  13
ENDBRANCH  10  12
ENDBRANCH   9  10
ENDBRANCH   1   9
TORSDOF 0
