REMARK SMILES CC1(C)CC(=O)c2cc(O)ccc2O1
REMARK SMILES IDX 1 1 2 2 3 3 4 4 5 5 6 6 7 7 8 8 9 9 11 10 12 11 13 12 14 13
REMARK SMILES IDX 10 14
REMARK H PARENT 10 15
ROOT
ATOM      1  C   UNL     1      -3.221   1.619   0.000  1.00  0.00     0.057 C 
ATOM      2  C   UNL     1      -2.409   0.358   0.000  1.00  0.00     0.111 C 
ATOM      3  C   UNL     1      -3.792  -0.223   0.000  1.00  0.00     0.057 C 
ATOM      4  C   UNL     1      -2.077  -1.105   0.000  1.00  0.00     0.129 C 
ATOM      5  C   UNL     1      -0.645  -1.549   0.000  1.00  0.00     0.170 C 
ATOM      6  O   UNL     1      -0.313  -3.012   0.000  1.00  0.00    -0.294 OA
ATOM      7  C   UNL     1       0.456  -0.530   0.000  1.00  0.00     0.063 A 
ATOM      8  C   UNL     1       1.889  -0.974   0.000  1.00  0.00     0.061 A 
ATOM      9  C   UNL     1       2.990   0.045   0.000  1.00  0.00     0.116 A 
ATOM     10  C   UNL     1       2.658   1.508   0.000  1.00  0.00     0.050 A 
ATOM     11  C   UNL     1       1.225   1.952   0.000  1.00  0.00     0.051 A 
ATOM     12  C   UNL     1       0.124   0.933   0.000  1.00  0.00     0.131 A 
ATOM     13  O   UNL     1      -1.308   1.377   0.000  1.00  0.00    -0.487 OA
ENDROOT
BRANCH   9  14
ATOM     14  O   UNL     1       4.423  -0.399   0.000  1.00  0.00    -0.508 OA
ATOM     15  H   UNL     1       0.000   0.000   0.000  1.00  0.00     0.293 HD
ENDBRANCH   9  14
TORSDOF 1
