REMARK SMILES CC[C@H](C)C(=O)O[C@@H]1[C@@H]2C=C3[C@@H]4CC(=O)O[C@@H](c5ccoc5)[C@]4(C)CC[C@@H]3[C@@](C)(C2=O)[C@@H](CC(=O)OC)C1(C)C
REMARK SMILES IDX 8 1 9 2 10 3 11 4 12 5 13 6 14 7 15 8 16 9 17 10 23 11 24 12
REMARK SMILES IDX 25 13 26 14 27 15 28 16 29 17 30 18 31 19 32 20 38 21 39 22
REMARK SMILES IDX 40 23 7 24 5 25 6 26 3 27 4 28 2 29 1 30 33 31 34 32 35 33
REMARK SMILES IDX 36 34 37 35 18 36 22 37 19 38 21 39 20 40
REMARK H PARENT
ROOT
ATOM      1  C   UNL     1       3.284  -0.073   0.000  1.00  0.00     0.196 C 
ATOM      2  C   UNL     1       2.006   0.713   0.000  1.00  0.00     0.121 C 
ATOM      3  C   UNL     1       0.729   1.500   0.000  1.00  0.00    -0.012 C 
ATOM      4  C   UNL     1      -0.591   0.787   0.000  1.00  0.00    -0.065 C 
ATOM      5  C   UNL     1      -1.868   1.574   0.000  1.00  0.00     0.036 C 
ATOM      6  C   UNL     1      -1.825   3.073   0.000  1.00  0.00     0.131 C 
ATOM      7  C   UNL     1      -3.102   3.860   0.000  1.00  0.00     0.307 C 
ATOM      8  O   UNL     1      -3.059   5.359   0.000  1.00  0.00    -0.252 OA
ATOM      9  O   UNL     1      -4.422   3.147   0.000  1.00  0.00    -0.457 OA
ATOM     10  C   UNL     1      -4.465   1.648   0.000  1.00  0.00     0.216 C 
ATOM     11  C   UNL     1      -3.188   0.861   0.000  1.00  0.00     0.016 C 
ATOM     12  C   UNL     1      -4.508   0.149   0.000  1.00  0.00     0.016 C 
ATOM     13  C   UNL     1      -3.230  -0.638   0.000  1.00  0.00     0.012 C 
ATOM     14  C   UNL     1      -1.953  -1.425   0.000  1.00  0.00     0.010 C 
ATOM     15  C   UNL     1      -0.633  -0.712   0.000  1.00  0.00     0.029 C 
ATOM     16  C   UNL     1       0.644  -1.499   0.000  1.00  0.00     0.037 C 
ATOM     17  C   UNL     1       0.601  -2.998   0.000  1.00  0.00     0.021 C 
ATOM     18  C   UNL     1       1.964  -0.786   0.000  1.00  0.00     0.150 C 
ATOM     19  O   UNL     1       2.723  -1.027   0.000  1.00  0.00    -0.298 OA
ATOM     20  C   UNL     1       1.921  -2.285   0.000  1.00  0.00     0.023 C 
ATOM     21  C   UNL     1       3.241  -1.573   0.000  1.00  0.00     0.007 C 
ATOM     22  C   UNL     1       3.714  -2.996   0.000  1.00  0.00     0.015 C 
ATOM     23  C   UNL     1       4.725  -1.354   0.000  1.00  0.00     0.015 C 
ENDROOT
BRANCH   1  24
ATOM     24  O   UNL     1       4.603   0.639   0.000  1.00  0.00    -0.460 OA
BRANCH  24  25
ATOM     25  C   UNL     1       4.646   2.139   0.000  1.00  0.00     0.308 C 
ATOM     26  O   UNL     1       3.369   2.925   0.000  1.00  0.00    -0.252 OA
BRANCH  25  27
ATOM     27  C   UNL     1       5.966   2.852   0.000  1.00  0.00     0.096 C 
ATOM     28  C   UNL     1       6.009   4.351   0.000  1.00  0.00     0.020 C 
BRANCH  27  29
ATOM     29  C   UNL     1       7.243   2.065   0.000  1.00  0.00     0.011 C 
ATOM     30  C   UNL     1       8.563   2.778   0.000  1.00  0.00     0.005 C 
ENDBRANCH  27  29
ENDBRANCH  25  27
ENDBRANCH  24  25
ENDBRANCH   1  24
BRANCH  20  31
ATOM     31  C   UNL     1       1.878  -3.785   0.000  1.00  0.00     0.128 C 
BRANCH  31  32
ATOM     32  C   UNL     1       0.558  -4.497   0.000  1.00  0.00     0.305 C 
ATOM     33  O   UNL     1      -0.719  -3.711   0.000  1.00  0.00    -0.252 OA
BRANCH  32  34
ATOM     34  O   UNL     1       0.516  -5.997   0.000  1.00  0.00    -0.469 OA
ATOM     35  C   UNL     1      -0.804  -6.710   0.000  1.00  0.00     0.282 C 
ENDBRANCH  32  34
ENDBRANCH  31  32
ENDBRANCH  20  31
BRANCH  10  36
ATOM     36  C   UNL     1      -5.785   0.935   0.000  1.00  0.00     0.031 A 
ATOM     37  C   UNL     1      -5.984  -0.551   0.000  1.00  0.00     0.202 A 
ATOM     38  C   UNL     1      -7.137   1.584   0.000  1.00  0.00     0.049 A 
ATOM     39  O   UNL     1      -7.459  -0.821   0.000  1.00  0.00    -0.472 OA
ATOM     40  C   UNL     1      -8.172   0.498   0.000  1.00  0.00     0.195 A 
ENDBRANCH  10  36
TORSDOF 8
