REMARK SMILES CC[C@H](C)/C=C/C1=CC2=C(Cl)C(=O)[C@@]3(C)OC(=O)C(C(=O)[C@H](C)CC)=C3C2=CO1
REMARK SMILES IDX 7 1 8 2 9 3 10 4 11 5 12 6 13 7 14 8 15 9 16 10 17 11 18 12
REMARK SMILES IDX 19 13 26 14 27 15 28 16 29 17 6 18 5 19 3 20 4 21 2 22 1 23
REMARK SMILES IDX 20 24 21 25 22 26 23 27 24 28 25 29
REMARK H PARENT
ROOT
ATOM      1  C   UNL     1      -2.869   0.166   0.000  1.00  0.00     0.126 C 
ATOM      2  C   UNL     1      -2.230   1.524   0.000  1.00  0.00     0.057 C 
ATOM      3  C   UNL     1      -0.736   1.650   0.000  1.00  0.00     0.011 C 
ATOM      4  C   UNL     1      -0.097   3.007   0.000  1.00  0.00     0.096 C 
ATOM      5  Cl  UNL     1      -0.954   4.239   0.000  1.00  0.00    -0.080 Cl
ATOM      6  C   UNL     1       1.397   3.133   0.000  1.00  0.00     0.222 C 
ATOM      7  O   UNL     1       2.036   4.491   0.000  1.00  0.00    -0.288 OA
ATOM      8  C   UNL     1       2.254   1.902   0.000  1.00  0.00     0.200 C 
ATOM      9  C   UNL     1       3.030   3.185   0.000  1.00  0.00     0.071 C 
ATOM     10  O   UNL     1       3.742   1.714   0.000  1.00  0.00    -0.442 OA
ATOM     11  C   UNL     1       4.024   0.241   0.000  1.00  0.00     0.343 C 
ATOM     12  O   UNL     1       5.381  -0.397   0.000  1.00  0.00    -0.246 OA
ATOM     13  C   UNL     1       2.709  -0.482   0.000  1.00  0.00     0.111 C 
ATOM     14  C   UNL     1       1.616   0.544   0.000  1.00  0.00     0.032 C 
ATOM     15  C   UNL     1       0.121   0.418   0.000  1.00  0.00     0.027 C 
ATOM     16  C   UNL     1      -0.517  -0.939   0.000  1.00  0.00     0.204 C 
ATOM     17  O   UNL     1      -2.012  -1.065   0.000  1.00  0.00    -0.464 OA
ENDROOT
BRANCH   1  18
ATOM     18  C   UNL     1      -4.363   0.041   0.000  1.00  0.00     0.043 C 
BRANCH  18  19
ATOM     19  C   UNL     1      -5.002  -1.317   0.000  1.00  0.00    -0.020 C 
BRANCH  19  20
ATOM     20  C   UNL     1      -6.496  -1.443   0.000  1.00  0.00     0.008 C 
ATOM     21  C   UNL     1      -7.135  -2.800   0.000  1.00  0.00     0.012 C 
BRANCH  20  22
ATOM     22  C   UNL     1      -7.353  -0.211   0.000  1.00  0.00     0.004 C 
ATOM     23  C   UNL     1      -8.847  -0.337   0.000  1.00  0.00     0.004 C 
ENDBRANCH  20  22
ENDBRANCH  19  20
ENDBRANCH  18  19
ENDBRANCH   1  18
BRANCH  13  24
ATOM     24  C   UNL     1       2.522  -1.970   0.000  1.00  0.00     0.173 C 
ATOM     25  O   UNL     1       1.139  -2.552   0.000  1.00  0.00    -0.294 OA
BRANCH  24  26
ATOM     26  C   UNL     1       3.717  -2.877   0.000  1.00  0.00     0.058 C 
ATOM     27  C   UNL     1       3.529  -4.365   0.000  1.00  0.00     0.016 C 
BRANCH  26  28
ATOM     28  C   UNL     1       5.099  -2.295   0.000  1.00  0.00     0.008 C 
ATOM     29  C   UNL     1       6.295  -3.202   0.000  1.00  0.00     0.004 C 
ENDBRANCH  26  28
ENDBRANCH  24  26
ENDBRANCH  13  24
TORSDOF 7
