REMARK SMILES C=CCOc1cc2c(cc1OC)[C@H](C)[C@@H](c1ccc3c(c1)OCO3)O2
REMARK SMILES IDX 4 1 3 2 2 3 1 4 5 5 6 6 10 7 7 8 9 9 8 10 25 11 13 12 15 13
REMARK SMILES IDX 14 14 11 15 12 16 16 17 17 18 21 19 18 20 20 21 19 22 22 23
REMARK SMILES IDX 24 24 23 25
REMARK H PARENT
ROOT
ATOM      1  O   UNL     1       5.071  -0.498   0.000  1.00  0.00    -0.486 OA
ENDROOT
BRANCH   1   2
ATOM      2  C   UNL     1       5.212  -1.991   0.000  1.00  0.00     0.257 C 
BRANCH   2   3
ATOM      3  C   UNL     1       6.576  -2.615   0.000  1.00  0.00     0.006 C 
ATOM      4  C   UNL     1       6.718  -4.109   0.000  1.00  0.00     0.007 C 
ENDBRANCH   2   3
ENDBRANCH   1   2
BRANCH   1   5
ATOM      5  C   UNL     1       3.707   0.126   0.000  1.00  0.00     0.165 A 
ATOM      6  C   UNL     1       2.484  -0.743   0.000  1.00  0.00     0.097 A 
ATOM      7  C   UNL     1       3.565   1.619   0.000  1.00  0.00     0.161 A 
ATOM      8  C   UNL     1       1.120  -0.119   0.000  1.00  0.00     0.127 A 
ATOM      9  C   UNL     1       2.201   2.243   0.000  1.00  0.00     0.058 A 
ATOM     10  C   UNL     1       0.979   1.374   0.000  1.00  0.00     0.005 A 
ATOM     11  O   UNL     1      -0.256  -0.715   0.000  1.00  0.00    -0.485 OA
ATOM     12  C   UNL     1      -0.485   1.701   0.000  1.00  0.00     0.066 C 
ATOM     13  C   UNL     1      -1.249   0.409   0.000  1.00  0.00     0.211 C 
ATOM     14  C   UNL     1      -1.082   3.077   0.000  1.00  0.00     0.017 C 
BRANCH   7  15
ATOM     15  O   UNL     1       4.787   2.489   0.000  1.00  0.00    -0.493 OA
ATOM     16  C   UNL     1       6.152   1.865   0.000  1.00  0.00     0.278 C 
ENDBRANCH   7  15
BRANCH  13  17
ATOM     17  C   UNL     1      -2.742   0.268   0.000  1.00  0.00    -0.003 A 
ATOM     18  C   UNL     1      -3.611   1.490   0.000  1.00  0.00     0.011 A 
ATOM     19  C   UNL     1      -3.366  -1.096   0.000  1.00  0.00     0.058 A 
ATOM     20  C   UNL     1      -5.104   1.349   0.000  1.00  0.00     0.051 A 
ATOM     21  C   UNL     1      -4.859  -1.238   0.000  1.00  0.00     0.166 A 
ATOM     22  C   UNL     1      -5.729  -0.015   0.000  1.00  0.00     0.165 A 
ATOM     23  O   UNL     1      -5.753  -2.442   0.000  1.00  0.00    -0.454 OA
ATOM     24  O   UNL     1      -7.160  -0.464   0.000  1.00  0.00    -0.454 OA
ATOM     25  C   UNL     1      -7.175  -1.964   0.000  1.00  0.00     0.468 C 
ENDBRANCH  13  17
ENDBRANCH   1   5
TORSDOF 5
