REMARK SMILES O=C(C=Cc1ccc(O)cc1)NCCc1ccc(O)cc1
REMARK SMILES IDX 1 1 2 2 12 3 3 5 4 6 5 7 6 8 11 9 7 10 10 11 8 12 9 13 13 15
REMARK SMILES IDX 14 16 15 17 16 18 21 19 17 20 20 21 18 22 19 23
REMARK H PARENT 12 4 9 14 19 24
ROOT
ATOM      1  O   UNL     1       0.239  -1.875   0.000  1.00  0.00    -0.270 OA
ATOM      2  C   UNL     1       0.547  -0.407   0.000  1.00  0.00     0.244 C 
ATOM      3  N   UNL     1      -0.571   0.594   0.000  1.00  0.00    -0.352 N 
ATOM      4  H   UNL     1       0.000   0.000   0.000  1.00  0.00     0.163 HD
ENDROOT
BRANCH   2   5
ATOM      5  C   UNL     1       1.972   0.060   0.000  1.00  0.00     0.072 C 
BRANCH   5   6
ATOM      6  C   UNL     1       3.089  -0.940   0.000  1.00  0.00     0.014 C 
BRANCH   6   7
ATOM      7  C   UNL     1       4.515  -0.473   0.000  1.00  0.00    -0.025 A 
ATOM      8  C   UNL     1       5.632  -1.474   0.000  1.00  0.00     0.012 A 
ATOM      9  C   UNL     1       4.823   0.995   0.000  1.00  0.00     0.012 A 
ATOM     10  C   UNL     1       7.058  -1.007   0.000  1.00  0.00     0.047 A 
ATOM     11  C   UNL     1       6.248   1.462   0.000  1.00  0.00     0.047 A 
ATOM     12  C   UNL     1       7.366   0.461   0.000  1.00  0.00     0.115 A 
BRANCH  12  13
ATOM     13  O   UNL     1       8.791   0.928   0.000  1.00  0.00    -0.508 OA
ATOM     14  H   UNL     1       0.000   0.000   0.000  1.00  0.00     0.293 HD
ENDBRANCH  12  13
ENDBRANCH   6   7
ENDBRANCH   5   6
ENDBRANCH   2   5
BRANCH   3  15
ATOM     15  C   UNL     1      -1.996   0.127   0.000  1.00  0.00     0.121 C 
BRANCH  15  16
ATOM     16  C   UNL     1      -3.113   1.128   0.000  1.00  0.00     0.057 C 
BRANCH  16  17
ATOM     17  C   UNL     1      -4.539   0.661   0.000  1.00  0.00    -0.046 A 
ATOM     18  C   UNL     1      -5.656   1.661   0.000  1.00  0.00     0.007 A 
ATOM     19  C   UNL     1      -4.847  -0.807   0.000  1.00  0.00     0.007 A 
ATOM     20  C   UNL     1      -7.081   1.194   0.000  1.00  0.00     0.046 A 
ATOM     21  C   UNL     1      -6.272  -1.275   0.000  1.00  0.00     0.046 A 
ATOM     22  C   UNL     1      -7.389  -0.274   0.000  1.00  0.00     0.115 A 
BRANCH  22  23
ATOM     23  O   UNL     1      -8.815  -0.741   0.000  1.00  0.00    -0.508 OA
ATOM     24  H   UNL     1       0.000   0.000   0.000  1.00  0.00     0.293 HD
ENDBRANCH  22  23
ENDBRANCH  16  17
ENDBRANCH  15  16
ENDBRANCH   3  15
TORSDOF 8
