REMARK SMILES CCCCCC(=O)CCCCCCc1ccc(O)c(C)n1
REMARK SMILES IDX 9 1 8 2 6 3 7 4 5 5 4 6 3 7 2 8 1 9 10 10 11 11 12 12 13 13
REMARK SMILES IDX 14 14 15 15 21 16 16 17 19 18 17 19 20 20 18 21
REMARK H PARENT 18 22
ROOT
ATOM      1  C   UNL     1      -2.031  -0.550   0.000  1.00  0.00     0.008 C 
ENDROOT
BRANCH   1   2
ATOM      2  C   UNL     1      -3.265   0.303   0.000  1.00  0.00     0.075 C 
BRANCH   2   3
ATOM      3  C   UNL     1      -4.621  -0.338   0.000  1.00  0.00     0.132 C 
ATOM      4  O   UNL     1      -4.743  -1.833   0.000  1.00  0.00    -0.300 OA
BRANCH   3   5
ATOM      5  C   UNL     1      -5.854   0.515   0.000  1.00  0.00     0.075 C 
BRANCH   5   6
ATOM      6  C   UNL     1      -7.210  -0.126   0.000  1.00  0.00     0.008 C 
BRANCH   6   7
ATOM      7  C   UNL     1      -8.444   0.727   0.000  1.00  0.00     0.000 C 
BRANCH   7   8
ATOM      8  C   UNL     1      -9.799   0.086   0.000  1.00  0.00    -0.003 C 
ATOM      9  C   UNL     1     -11.033   0.939   0.000  1.00  0.00     0.004 C 
ENDBRANCH   7   8
ENDBRANCH   6   7
ENDBRANCH   5   6
ENDBRANCH   3   5
ENDBRANCH   2   3
ENDBRANCH   1   2
BRANCH   1  10
ATOM     10  C   UNL     1      -0.675   0.091   0.000  1.00  0.00     0.000 C 
BRANCH  10  11
ATOM     11  C   UNL     1       0.558  -0.762   0.000  1.00  0.00     0.000 C 
BRANCH  11  12
ATOM     12  C   UNL     1       1.914  -0.121   0.000  1.00  0.00     0.006 C 
BRANCH  12  13
ATOM     13  C   UNL     1       3.148  -0.974   0.000  1.00  0.00     0.056 C 
BRANCH  13  14
ATOM     14  C   UNL     1       4.504  -0.333   0.000  1.00  0.00     0.041 A 
ATOM     15  C   UNL     1       4.626   1.162   0.000  1.00  0.00     0.027 A 
ATOM     16  N   UNL     1       5.737  -1.186   0.000  1.00  0.00    -0.254 NA
ATOM     17  C   UNL     1       5.982   1.804   0.000  1.00  0.00     0.050 A 
ATOM     18  C   UNL     1       7.093  -0.545   0.000  1.00  0.00     0.079 A 
ATOM     19  C   UNL     1       7.215   0.950   0.000  1.00  0.00     0.136 A 
ATOM     20  C   UNL     1       8.326  -1.398   0.000  1.00  0.00     0.071 C 
BRANCH  19  21
ATOM     21  O   UNL     1       8.571   1.591   0.000  1.00  0.00    -0.506 OA
ATOM     22  H   UNL     1       0.000   0.000   0.000  1.00  0.00     0.293 HD
ENDBRANCH  19  21
ENDBRANCH  13  14
ENDBRANCH  12  13
ENDBRANCH  11  12
ENDBRANCH  10  11
ENDBRANCH   1  10
TORSDOF 12
