REMARK SMILES O=C1C=CC[C@H](/C=C/C[C@H]2C[C@H](O)[C@H](O)[C@@H](/C=C/c3ccccc3)O2)O1
REMARK SMILES IDX 9 1 8 2 7 3 6 4 2 5 3 6 26 7 4 8 5 9 1 10 10 11 11 12 25 13
REMARK SMILES IDX 12 14 16 15 14 16 13 17 17 19 18 20 19 21 20 22 24 23 21 24
REMARK SMILES IDX 23 25 22 26 15 27
REMARK H PARENT 13 18 15 28
ROOT
ATOM      1  C   UNL     1      -1.334   0.898   0.000  1.00  0.00     0.059 C 
ENDROOT
BRANCH   1   2
ATOM      2  C   UNL     1      -2.803   0.595   0.000  1.00  0.00    -0.025 C 
BRANCH   2   3
ATOM      3  C   UNL     1      -3.800   1.716   0.000  1.00  0.00     0.013 C 
BRANCH   3   4
ATOM      4  C   UNL     1      -5.269   1.412   0.000  1.00  0.00     0.203 C 
ATOM      5  C   UNL     1      -7.210  -0.315   0.000  1.00  0.00     0.331 C 
ATOM      6  C   UNL     1      -8.207   0.806   0.000  1.00  0.00     0.089 C 
ATOM      7  O   UNL     1      -5.741  -0.011   0.000  1.00  0.00    -0.455 OA
ATOM      8  C   UNL     1      -7.735   2.230   0.000  1.00  0.00    -0.015 C 
ATOM      9  C   UNL     1      -6.266   2.533   0.000  1.00  0.00     0.077 C 
ATOM     10  O   UNL     1      -7.682  -1.738   0.000  1.00  0.00    -0.247 OA
ENDBRANCH   3   4
ENDBRANCH   2   3
ENDBRANCH   1   2
BRANCH   1  11
ATOM     11  C   UNL     1      -0.337  -0.223   0.000  1.00  0.00     0.125 C 
ATOM     12  C   UNL     1      -0.809  -1.646   0.000  1.00  0.00     0.067 C 
ATOM     13  O   UNL     1       1.132   0.081   0.000  1.00  0.00    -0.368 OA
ATOM     14  C   UNL     1       0.188  -2.767   0.000  1.00  0.00     0.148 C 
ATOM     15  C   UNL     1       2.129  -1.040   0.000  1.00  0.00     0.172 C 
ATOM     16  C   UNL     1       1.657  -2.464   0.000  1.00  0.00     0.176 C 
BRANCH  14  17
ATOM     17  O   UNL     1      -0.284  -4.191   0.000  1.00  0.00    -0.390 OA
ATOM     18  H   UNL     1       0.000   0.000   0.000  1.00  0.00     0.211 HD
ENDBRANCH  14  17
BRANCH  15  19
ATOM     19  C   UNL     1       3.598  -0.737   0.000  1.00  0.00     0.008 C 
BRANCH  19  20
ATOM     20  C   UNL     1       4.070   0.687   0.000  1.00  0.00     0.006 C 
BRANCH  20  21
ATOM     21  C   UNL     1       5.539   0.990   0.000  1.00  0.00    -0.026 A 
ATOM     22  C   UNL     1       6.536  -0.131   0.000  1.00  0.00     0.008 A 
ATOM     23  C   UNL     1       6.011   2.414   0.000  1.00  0.00     0.008 A 
ATOM     24  C   UNL     1       8.005   0.172   0.000  1.00  0.00     0.001 A 
ATOM     25  C   UNL     1       7.480   2.717   0.000  1.00  0.00     0.001 A 
ATOM     26  C   UNL     1       8.477   1.596   0.000  1.00  0.00     0.000 A 
ENDBRANCH  20  21
ENDBRANCH  19  20
ENDBRANCH  15  19
BRANCH  16  27
ATOM     27  O   UNL     1       2.654  -3.584   0.000  1.00  0.00    -0.387 OA
ATOM     28  H   UNL     1       0.000   0.000   0.000  1.00  0.00     0.211 HD
ENDBRANCH  16  27
ENDBRANCH   1  11
TORSDOF 9
