REMARK SMILES C=C1C[C@@]23CC[C@@H]4C(C)(C)CCC[C@@]4(C)[C@@H]2[C@H](OC(C)=O)C[C@@H]1C3
REMARK SMILES IDX 18 1 17 2 2 3 3 4 23 5 4 6 22 7 24 8 5 9 16 10 6 11 14 12
REMARK SMILES IDX 7 13 13 14 8 15 12 16 11 17 1 18 15 19 9 20 10 21 19 22
REMARK SMILES IDX 20 23 21 24
REMARK H PARENT
ROOT
ATOM      1  O   UNL     1      -1.045   2.349   0.000  1.00  0.00    -0.462 OA
ENDROOT
BRANCH   1   2
ATOM      2  C   UNL     1      -1.379   0.887   0.000  1.00  0.00     0.181 C 
ATOM      3  C   UNL     1      -2.844  -2.550   0.000  1.00  0.00    -0.074 C 
ATOM      4  C   UNL     1      -1.382  -2.884   0.000  1.00  0.00     0.038 C 
ATOM      5  C   UNL     1      -3.145  -1.018   0.000  1.00  0.00     0.019 C 
ATOM      6  C   UNL     1      -0.612  -1.596   0.000  1.00  0.00    -0.019 C 
ATOM      7  C   UNL     1      -2.812   0.445   0.000  1.00  0.00     0.053 C 
ATOM      8  C   UNL     1      -2.046  -2.038   0.000  1.00  0.00     0.016 C 
ATOM      9  C   UNL     1       0.487  -2.616   0.000  1.00  0.00     0.008 C 
ATOM     10  C   UNL     1      -0.279  -0.133   0.000  1.00  0.00     0.043 C 
ATOM     11  C   UNL     1       1.921  -2.174   0.000  1.00  0.00     0.005 C 
ATOM     12  C   UNL     1       1.155   0.309   0.000  1.00  0.00    -0.022 C 
ATOM     13  C   UNL     1       2.254  -0.711   0.000  1.00  0.00     0.001 C 
ATOM     14  C   UNL     1       1.488   1.771   0.000  1.00  0.00     0.007 C 
ATOM     15  C   UNL     1       3.688  -0.269   0.000  1.00  0.00    -0.032 C 
ATOM     16  C   UNL     1       2.921   2.214   0.000  1.00  0.00     0.001 C 
ATOM     17  C   UNL     1       4.021   1.194   0.000  1.00  0.00     0.007 C 
ATOM     18  C   UNL     1      -3.974  -3.537   0.000  1.00  0.00     0.008 C 
ATOM     19  C   UNL     1       0.055   1.329   0.000  1.00  0.00     0.012 C 
ATOM     20  C   UNL     1       5.186  -0.343   0.000  1.00  0.00     0.011 C 
ATOM     21  C   UNL     1       3.874  -1.757   0.000  1.00  0.00     0.011 C 
ENDBRANCH   1   2
BRANCH   1  22
ATOM     22  C   UNL     1      -2.145   3.369   0.000  1.00  0.00     0.302 C 
ATOM     23  C   UNL     1      -1.811   4.832   0.000  1.00  0.00     0.139 C 
ATOM     24  O   UNL     1      -3.578   2.927   0.000  1.00  0.00    -0.253 OA
ENDBRANCH   1  22
TORSDOF 2
