REMARK SMILES CC1(C)CCC[C@]2(C)[C@H]3Cc4occc4[C@@H](C(=O)O)[C@@H]3[C@@H](O)[C@H](O)[C@@H]12
REMARK SMILES IDX 1 1 2 2 3 3 4 4 5 5 6 6 7 7 8 8 9 9 10 10 11 11 15 12 14 13
REMARK SMILES IDX 13 14 12 15 16 16 20 17 21 18 23 19 25 20 24 21 22 23 17 25
REMARK SMILES IDX 18 26 19 27
REMARK H PARENT 24 22 22 24 19 28
ROOT
ATOM      1  C   UNL     1       3.753  -1.435   0.000  1.00  0.00     0.011 C 
ATOM      2  C   UNL     1       3.806   0.064   0.000  1.00  0.00    -0.029 C 
ATOM      3  C   UNL     1       5.273  -0.249   0.000  1.00  0.00     0.011 C 
ATOM      4  C   UNL     1       4.368   1.454   0.000  1.00  0.00     0.007 C 
ATOM      5  C   UNL     1       3.445   2.637   0.000  1.00  0.00     0.001 C 
ATOM      6  C   UNL     1       1.960   2.428   0.000  1.00  0.00     0.007 C 
ATOM      7  C   UNL     1       1.397   1.038   0.000  1.00  0.00    -0.023 C 
ATOM      8  C   UNL     1       0.474   2.220   0.000  1.00  0.00     0.012 C 
ATOM      9  C   UNL     1      -0.088   0.830   0.000  1.00  0.00     0.010 C 
ATOM     10  C   UNL     1      -1.011   2.012   0.000  1.00  0.00     0.080 C 
ATOM     11  C   UNL     1      -2.497   1.804   0.000  1.00  0.00     0.108 A 
ATOM     12  C   UNL     1      -3.059   0.413   0.000  1.00  0.00     0.008 A 
ATOM     13  C   UNL     1      -4.555   0.518   0.000  1.00  0.00     0.047 A 
ATOM     14  C   UNL     1      -4.918   1.974   0.000  1.00  0.00     0.195 A 
ATOM     15  O   UNL     1      -3.646   2.768   0.000  1.00  0.00    -0.469 OA
ATOM     16  C   UNL     1      -2.136  -0.769   0.000  1.00  0.00     0.138 C 
ATOM     17  C   UNL     1      -0.651  -0.561   0.000  1.00  0.00     0.043 C 
ATOM     18  C   UNL     1       0.273  -1.743   0.000  1.00  0.00     0.148 C 
ATOM     19  C   UNL     1       1.758  -1.535   0.000  1.00  0.00     0.147 C 
ATOM     20  C   UNL     1       2.320  -0.145   0.000  1.00  0.00     0.032 C 
ENDROOT
BRANCH  19  21
ATOM     21  O   UNL     1       2.681  -2.717   0.000  1.00  0.00    -0.390 OA
ATOM     22  H   UNL     1       0.000   0.000   0.000  1.00  0.00     0.211 HD
ENDBRANCH  19  21
BRANCH  18  23
ATOM     23  O   UNL     1      -0.290  -3.134   0.000  1.00  0.00    -0.390 OA
ATOM     24  H   UNL     1       0.000   0.000   0.000  1.00  0.00     0.211 HD
ENDBRANCH  18  23
BRANCH  16  25
ATOM     25  C   UNL     1      -2.699  -2.160   0.000  1.00  0.00     0.311 C 
ATOM     26  O   UNL     1      -1.775  -3.342   0.000  1.00  0.00    -0.252 OA
BRANCH  25  27
ATOM     27  O   UNL     1      -4.184  -2.368   0.000  1.00  0.00    -0.481 OA
ATOM     28  H   UNL     1       0.000   0.000   0.000  1.00  0.00     0.296 HD
ENDBRANCH  25  27
ENDBRANCH  16  25
TORSDOF 4
