REMARK SMILES COc1cc(C[C@H]2CO[C@H](c3ccc(OC(C)=O)c(OC)c3)[C@H]2COC(C)=O)ccc1OC(C)=O
REMARK SMILES IDX 7 1 8 2 9 3 10 4 23 5 6 6 5 7 3 8 4 9 31 10 30 11 29 12 2 13
REMARK SMILES IDX 1 14 32 15 33 16 34 17 35 18 24 19 25 20 26 21 27 22 28 23
REMARK SMILES IDX 11 24 12 25 22 26 13 27 19 28 14 29 20 30 21 31 15 32 16 33
REMARK SMILES IDX 17 34 18 35
REMARK H PARENT
ROOT
ATOM      1  C   UNL     1       0.899  -3.118   0.000  1.00  0.00     0.029 C 
ATOM      2  C   UNL     1      -0.021  -4.303   0.000  1.00  0.00     0.165 C 
ATOM      3  O   UNL     1      -1.432  -3.794   0.000  1.00  0.00    -0.373 OA
ATOM      4  C   UNL     1      -1.384  -2.295   0.000  1.00  0.00     0.155 C 
ATOM      5  C   UNL     1       0.056  -1.877   0.000  1.00  0.00     0.066 C 
ENDROOT
BRANCH   1   6
ATOM      6  C   UNL     1       2.398  -3.166   0.000  1.00  0.00     0.042 C 
BRANCH   6   7
ATOM      7  C   UNL     1       3.189  -1.892   0.000  1.00  0.00    -0.044 A 
ATOM      8  C   UNL     1       5.479  -0.665   0.000  1.00  0.00     0.161 A 
ATOM      9  C   UNL     1       4.688  -1.940   0.000  1.00  0.00     0.054 A 
ATOM     10  C   UNL     1       4.771   0.657   0.000  1.00  0.00     0.172 A 
ATOM     11  C   UNL     1       3.272   0.705   0.000  1.00  0.00     0.051 A 
ATOM     12  C   UNL     1       2.481  -0.569   0.000  1.00  0.00     0.008 A 
BRANCH   8  13
ATOM     13  O   UNL     1       6.979  -0.713   0.000  1.00  0.00    -0.493 OA
ATOM     14  C   UNL     1       7.687  -2.035   0.000  1.00  0.00     0.278 C 
ENDBRANCH   8  13
BRANCH  10  15
ATOM     15  O   UNL     1       5.562   1.932   0.000  1.00  0.00    -0.423 OA
BRANCH  15  16
ATOM     16  C   UNL     1       4.854   3.254   0.000  1.00  0.00     0.308 C 
ATOM     17  C   UNL     1       5.645   4.528   0.000  1.00  0.00     0.139 C 
ATOM     18  O   UNL     1       3.355   3.302   0.000  1.00  0.00    -0.252 OA
ENDBRANCH  15  16
ENDBRANCH  10  15
ENDBRANCH   6   7
ENDBRANCH   1   6
BRANCH   5  19
ATOM     19  C   UNL     1       0.565  -0.466   0.000  1.00  0.00     0.239 C 
BRANCH  19  20
ATOM     20  O   UNL     1      -0.403   0.680   0.000  1.00  0.00    -0.465 OA
BRANCH  20  21
ATOM     21  C   UNL     1       0.106   2.091   0.000  1.00  0.00     0.302 C 
ATOM     22  C   UNL     1      -0.861   3.237   0.000  1.00  0.00     0.139 C 
ATOM     23  O   UNL     1       1.583   2.356   0.000  1.00  0.00    -0.253 OA
ENDBRANCH  20  21
ENDBRANCH  19  20
ENDBRANCH   5  19
BRANCH   4  24
ATOM     24  C   UNL     1      -2.569  -1.375   0.000  1.00  0.00    -0.015 A 
ATOM     25  C   UNL     1      -2.365   0.111   0.000  1.00  0.00     0.010 A 
ATOM     26  C   UNL     1      -3.958  -1.941   0.000  1.00  0.00     0.057 A 
ATOM     27  C   UNL     1      -3.550   1.031   0.000  1.00  0.00     0.051 A 
ATOM     28  C   UNL     1      -5.143  -1.021   0.000  1.00  0.00     0.161 A 
ATOM     29  C   UNL     1      -4.939   0.465   0.000  1.00  0.00     0.172 A 
BRANCH  28  30
ATOM     30  O   UNL     1      -6.532  -1.587   0.000  1.00  0.00    -0.493 OA
ATOM     31  C   UNL     1      -6.736  -3.073   0.000  1.00  0.00     0.278 C 
ENDBRANCH  28  30
BRANCH  29  32
ATOM     32  O   UNL     1      -6.123   1.385   0.000  1.00  0.00    -0.423 OA
BRANCH  32  33
ATOM     33  C   UNL     1      -5.919   2.871   0.000  1.00  0.00     0.308 C 
ATOM     34  C   UNL     1      -7.104   3.791   0.000  1.00  0.00     0.139 C 
ATOM     35  O   UNL     1      -4.530   3.437   0.000  1.00  0.00    -0.252 OA
ENDBRANCH  32  33
ENDBRANCH  29  32
ENDBRANCH   4  24
TORSDOF 12
