REMARK SMILES C=C1C(=O)O[C@@H]2/C=C(/C)CC/C=C(/C(=O)OC)[C@H](OC(C)=O)[C@@H](OC(=O)[C@@]3(C)O[C@H]3C)[C@@H]12
REMARK SMILES IDX 23 1 32 2 2 3 3 4 5 5 6 6 1 7 4 8 7 9 8 10 9 11 10 12 18 14
REMARK SMILES IDX 13 15 12 16 11 17 14 19 15 20 16 21 17 22 19 23 20 24 21 25
REMARK SMILES IDX 22 26 24 27 25 28 26 29 27 30 29 31 30 32 28 33 31 34
REMARK H PARENT
REMARK Flexibility Score:   19.900
ROOT
ATOM      1  C   UNL     1       0.667  -0.623   0.000  1.00  0.00     0.234 C 
ENDROOT
BRANCH   1   2
ATOM      2  C   UNL     1       2.093  -1.088   0.000  1.00  0.00     0.116 C 
ATOM      3  C   UNL     1       2.092  -2.588   0.000  1.00  0.00     0.041 C 
ATOM      4  C   UNL     1       3.518  -3.053   0.000  1.00  0.00     0.334 C 
ATOM      5  O   UNL     1       4.401  -1.841   0.000  1.00  0.00    -0.454 OA
ATOM      6  C   UNL     1       3.521  -0.626   0.000  1.00  0.00     0.211 C 
ATOM      7  C   UNL     1       0.877  -3.468   0.000  1.00  0.00     0.021 C 
ATOM      8  O   UNL     1       3.979  -4.480   0.000  1.00  0.00    -0.247 OA
BRANCH   6   9
ATOM      9  C   UNL     1       4.404   0.587   0.000  1.00  0.00     0.017 C 
BRANCH   9  10
ATOM     10  C   UNL     1       4.405   2.087   0.000  1.00  0.00    -0.073 C 
ATOM     11  C   UNL     1       5.833   2.548   0.000  1.00  0.00     0.039 C 
BRANCH  10  12
ATOM     12  C   UNL     1       3.525   3.301   0.000  1.00  0.00     0.034 CG0
ATOM     13  G   UNL     1       2.099   3.766   0.000  1.00  0.00     0.000 G0
ENDBRANCH  10  12
ENDBRANCH   9  10
ENDBRANCH   6   9
ENDBRANCH   1   2
BRANCH   1  14
ATOM     14  C   UNL     1      -0.213   0.592   0.000  1.00  0.00     0.255 C 
BRANCH  14  15
ATOM     15  C   UNL     1      -0.211   2.092   0.000  1.00  0.00     0.077 C 
BRANCH  15  16
ATOM     16  C   UNL     1       0.672   3.304   0.000  1.00  0.00    -0.012 C 
BRANCH  16  17
ATOM     17  C   UNL     1       2.099   3.766   0.000  1.00  0.00     0.032 CG0
ATOM     18  G   UNL     1       3.525   3.301   0.000  1.00  0.00     0.000 G0
ENDBRANCH  16  17
ENDBRANCH  15  16
BRANCH  15  19
ATOM     19  C   UNL     1      -1.637   2.557   0.000  1.00  0.00     0.337 C 
ATOM     20  O   UNL     1      -2.341   2.184   0.000  1.00  0.00    -0.246 OA
BRANCH  19  21
ATOM     21  O   UNL     1      -1.947   4.025   0.000  1.00  0.00    -0.466 OA
ATOM     22  C   UNL     1      -3.373   4.490   0.000  1.00  0.00     0.282 C 
ENDBRANCH  19  21
ENDBRANCH  15  19
ENDBRANCH  14  15
BRANCH  14  23
ATOM     23  O   UNL     1      -1.640   0.130   0.000  1.00  0.00    -0.453 OA
BRANCH  23  24
ATOM     24  C   UNL     1      -2.753   1.135   0.000  1.00  0.00     0.303 C 
ATOM     25  C   UNL     1      -4.181   0.673   0.000  1.00  0.00     0.139 C 
ATOM     26  O   UNL     1      -2.548   2.098   0.000  1.00  0.00    -0.253 OA
ENDBRANCH  23  24
ENDBRANCH  14  23
ENDBRANCH   1  14
BRANCH   1  27
ATOM     27  O   UNL     1      -0.216  -1.835   0.000  1.00  0.00    -0.455 OA
BRANCH  27  28
ATOM     28  C   UNL     1      -1.707  -1.676   0.000  1.00  0.00     0.341 C 
ATOM     29  O   UNL     1      -2.630  -0.493   0.000  1.00  0.00    -0.249 OA
BRANCH  28  30
ATOM     30  C   UNL     1      -2.591  -2.889   0.000  1.00  0.00     0.188 C 
ATOM     31  O   UNL     1      -3.835  -3.726   0.000  1.00  0.00    -0.354 OA
ATOM     32  C   UNL     1      -3.938  -2.230   0.000  1.00  0.00     0.160 C 
ATOM     33  C   UNL     1      -1.550  -3.969   0.000  1.00  0.00     0.058 C 
ATOM     34  C   UNL     1      -4.775  -0.985   0.000  1.00  0.00     0.042 C 
ENDBRANCH  28  30
ENDBRANCH  27  28
ENDBRANCH   1  27
TORSDOF 7
