REMARK SMILES C/C=C(\C)C(=O)O[C@H]1C[C@@H](OC(C)=O)[C@@]2(C(=O)OC)CO[C@H]3[C@@H](O)[C@@](C)([C@]45O[C@@]4(C)[C@H]4C[C@@H]5O[C@@H]5OC=C[C@@]54O)[C@H]4[C@]1(CO[C@]4(O)C(=O)OC)[C@@H]32
REMARK SMILES IDX 7 1 5 2 6 3 3 4 4 5 2 6 1 7 8 8 9 9 42 10 10 11 41 12 43 13
REMARK SMILES IDX 51 14 15 15 25 16 45 17 44 18 22 19 20 20 23 21 21 22 26 23
REMARK SMILES IDX 11 24 12 25 13 26 14 27 16 28 17 29 18 30 19 31 27 32 28 33
REMARK SMILES IDX 29 34 33 35 31 36 32 37 34 38 39 39 35 40 38 41 36 42 37 43
REMARK SMILES IDX 30 44 40 45 46 47 47 49 48 50 49 51 50 52 24 53
REMARK H PARENT 40 46 46 48 24 54
ROOT
ATOM      1  O   UNL     1       2.246   2.110   0.000  1.00  0.00    -0.458 OA
ENDROOT
BRANCH   1   2
ATOM      2  C   UNL     1       3.504   2.927   0.000  1.00  0.00     0.333 C 
ATOM      3  O   UNL     1       4.841   2.245   0.000  1.00  0.00    -0.247 OA
BRANCH   2   4
ATOM      4  C   UNL     1       3.426   4.425   0.000  1.00  0.00     0.030 C 
ATOM      5  C   UNL     1       2.089   5.106   0.000  1.00  0.00     0.052 C 
BRANCH   4   6
ATOM      6  C   UNL     1       4.684   5.241   0.000  1.00  0.00    -0.020 C 
ATOM      7  C   UNL     1       4.606   6.739   0.000  1.00  0.00     0.036 C 
ENDBRANCH   4   6
ENDBRANCH   2   4
ENDBRANCH   1   2
BRANCH   1   8
ATOM      8  C   UNL     1       2.325   0.612   0.000  1.00  0.00     0.190 C 
ATOM      9  C   UNL     1       3.661  -0.069   0.000  1.00  0.00     0.092 C 
ATOM     10  C   UNL     1       1.067  -0.205   0.000  1.00  0.00     0.047 C 
ATOM     11  C   UNL     1       3.740  -1.567   0.000  1.00  0.00     0.200 C 
ATOM     12  C   UNL     1      -0.334   0.333   0.000  1.00  0.00     0.085 C 
ATOM     13  C   UNL     1       2.011   0.961   0.000  1.00  0.00     0.176 C 
ATOM     14  C   UNL     1       1.145  -1.703   0.000  1.00  0.00     0.057 C 
ATOM     15  C   UNL     1       2.482  -2.384   0.000  1.00  0.00     0.134 C 
ATOM     16  C   UNL     1      -1.500  -0.611   0.000  1.00  0.00     0.040 C 
ATOM     17  C   UNL     1      -0.255   1.831   0.000  1.00  0.00     0.271 C 
ATOM     18  O   UNL     1       1.194   2.219   0.000  1.00  0.00    -0.340 OA
ATOM     19  C   UNL     1       0.084  -2.764   0.000  1.00  0.00     0.152 C 
ATOM     20  C   UNL     1       2.247  -3.866   0.000  1.00  0.00     0.183 C 
ATOM     21  C   UNL     1      -1.265  -2.093   0.000  1.00  0.00     0.153 C 
ATOM     22  O   UNL     1       0.765  -4.100   0.000  1.00  0.00    -0.374 OA
ATOM     23  C   UNL     1      -2.227   0.701   0.000  1.00  0.00     0.018 C 
BRANCH  11  24
ATOM     24  O   UNL     1       5.076  -2.248   0.000  1.00  0.00    -0.461 OA
BRANCH  24  25
ATOM     25  C   UNL     1       6.334  -1.431   0.000  1.00  0.00     0.302 C 
ATOM     26  C   UNL     1       7.670  -2.112   0.000  1.00  0.00     0.139 C 
ATOM     27  O   UNL     1       6.256   0.067   0.000  1.00  0.00    -0.253 OA
ENDBRANCH  24  25
ENDBRANCH  11  24
BRANCH  15  28
ATOM     28  C   UNL     1       3.739  -3.201   0.000  1.00  0.00     0.318 C 
ATOM     29  O   UNL     1       4.516  -3.022   0.000  1.00  0.00    -0.251 OA
BRANCH  28  30
ATOM     30  O   UNL     1       3.661  -4.699   0.000  1.00  0.00    -0.468 OA
ATOM     31  C   UNL     1       4.919  -5.516   0.000  1.00  0.00     0.282 C 
ENDBRANCH  28  30
ENDBRANCH  15  28
BRANCH  16  32
ATOM     32  C   UNL     1      -2.918  -1.100   0.000  1.00  0.00     0.133 C 
ATOM     33  O   UNL     1      -2.580  -2.561   0.000  1.00  0.00    -0.359 OA
ATOM     34  C   UNL     1      -4.015  -2.123   0.000  1.00  0.00     0.105 C 
ATOM     35  C   UNL     1      -3.552   0.260   0.000  1.00  0.00     0.159 C 
ATOM     36  C   UNL     1      -5.452  -1.512   0.000  1.00  0.00     0.069 C 
ATOM     37  C   UNL     1      -3.990  -1.175   0.000  1.00  0.00     0.045 C 
ATOM     38  O   UNL     1      -4.575   1.357   0.000  1.00  0.00    -0.334 OA
ATOM     39  C   UNL     1      -6.475  -0.415   0.000  1.00  0.00     0.154 C 
ATOM     40  C   UNL     1      -6.036   1.020   0.000  1.00  0.00     0.343 C 
ATOM     41  C   UNL     1      -7.975  -0.441   0.000  1.00  0.00     0.053 C 
ATOM     42  O   UNL     1      -7.265   1.880   0.000  1.00  0.00    -0.469 OA
ATOM     43  C   UNL     1      -8.463   0.977   0.000  1.00  0.00     0.189 C 
ATOM     44  C   UNL     1      -4.601  -3.503   0.000  1.00  0.00     0.046 C 
BRANCH  39  45
ATOM     45  O   UNL     1      -7.061  -1.796   0.000  1.00  0.00    -0.379 OA
ATOM     46  H   UNL     1       0.000   0.000   0.000  1.00  0.00     0.212 HD
ENDBRANCH  39  45
ENDBRANCH  16  32
BRANCH  17  47
ATOM     47  O   UNL     1      -1.753   1.752   0.000  1.00  0.00    -0.356 OA
ATOM     48  H   UNL     1       0.000   0.000   0.000  1.00  0.00     0.214 HD
ENDBRANCH  17  47
BRANCH  17  49
ATOM     49  C   UNL     1      -0.490   3.312   0.000  1.00  0.00     0.366 C 
ATOM     50  O   UNL     1       0.676   4.256   0.000  1.00  0.00    -0.246 OA
BRANCH  49  51
ATOM     51  O   UNL     1      -1.890   3.850   0.000  1.00  0.00    -0.465 OA
ATOM     52  C   UNL     1      -2.125   5.331   0.000  1.00  0.00     0.282 C 
ENDBRANCH  49  51
ENDBRANCH  17  49
BRANCH  21  53
ATOM     53  O   UNL     1      -2.168  -3.291   0.000  1.00  0.00    -0.390 OA
ATOM     54  H   UNL     1       0.000   0.000   0.000  1.00  0.00     0.211 HD
ENDBRANCH  21  53
ENDBRANCH   1   8
TORSDOF 14
