REMARK SMILES COc1cc2c(cc1OC)[C@@](O)(c1ccc3c(c1)OCO3)[C@H](C)[C@@H](C)C2=O
REMARK SMILES IDX 3 1 4 2 5 3 6 4 7 5 8 6 11 7 22 8 23 9 24 10 25 11 26 12
REMARK SMILES IDX 27 13 2 14 1 15 9 16 10 17 12 18 13 20 14 21 18 22 15 23
REMARK SMILES IDX 17 24 16 25 19 26 21 27 20 28
REMARK H PARENT 12 19
ROOT
ATOM      1  C   UNL     1      -4.060  -0.723   0.000  1.00  0.00     0.161 A 
ATOM      2  C   UNL     1      -3.626   0.713   0.000  1.00  0.00     0.062 A 
ATOM      3  C   UNL     1      -2.165   1.054   0.000  1.00  0.00     0.028 A 
ATOM      4  C   UNL     1      -1.139  -0.040   0.000  1.00  0.00     0.003 A 
ATOM      5  C   UNL     1      -1.573  -1.475   0.000  1.00  0.00     0.058 A 
ATOM      6  C   UNL     1      -3.034  -1.817   0.000  1.00  0.00     0.161 A 
ATOM      7  C   UNL     1       0.322   0.302   0.000  1.00  0.00     0.119 C 
ATOM      8  C   UNL     1       0.756   1.738   0.000  1.00  0.00     0.038 C 
ATOM      9  C   UNL     1       2.217   2.079   0.000  1.00  0.00     0.012 C 
ATOM     10  C   UNL     1      -0.270   2.832   0.000  1.00  0.00     0.064 C 
ATOM     11  C   UNL     1       0.164   4.268   0.000  1.00  0.00     0.017 C 
ATOM     12  C   UNL     1      -1.731   2.490   0.000  1.00  0.00     0.166 C 
ATOM     13  O   UNL     1      -2.757   3.584   0.000  1.00  0.00    -0.294 OA
ENDROOT
BRANCH   1  14
ATOM     14  O   UNL     1      -5.521  -1.065   0.000  1.00  0.00    -0.493 OA
ATOM     15  C   UNL     1      -6.547   0.029   0.000  1.00  0.00     0.278 C 
ENDBRANCH   1  14
BRANCH   6  16
ATOM     16  O   UNL     1      -3.468  -3.253   0.000  1.00  0.00    -0.493 OA
ATOM     17  C   UNL     1      -4.929  -3.595   0.000  1.00  0.00     0.278 C 
ENDBRANCH   6  16
BRANCH   7  18
ATOM     18  O   UNL     1       0.405  -1.196   0.000  1.00  0.00    -0.380 OA
ATOM     19  H   UNL     1       0.000   0.000   0.000  1.00  0.00     0.212 HD
ENDBRANCH   7  18
BRANCH   7  20
ATOM     20  C   UNL     1       1.811   0.123   0.000  1.00  0.00    -0.008 A 
ATOM     21  C   UNL     1       2.710   1.324   0.000  1.00  0.00     0.011 A 
ATOM     22  C   UNL     1       2.401  -1.256   0.000  1.00  0.00     0.057 A 
ATOM     23  C   UNL     1       4.200   1.146   0.000  1.00  0.00     0.051 A 
ATOM     24  C   UNL     1       3.890  -1.434   0.000  1.00  0.00     0.166 A 
ATOM     25  C   UNL     1       4.790  -0.234   0.000  1.00  0.00     0.165 A 
ATOM     26  O   UNL     1       4.755  -2.660   0.000  1.00  0.00    -0.454 OA
ATOM     27  O   UNL     1       6.210  -0.718   0.000  1.00  0.00    -0.454 OA
ATOM     28  C   UNL     1       6.188  -2.217   0.000  1.00  0.00     0.468 C 
ENDBRANCH   7  20
TORSDOF 4
