REMARK SMILES COc1cc(OC)c(C(=O)O)c(OC)c1
REMARK SMILES IDX 3 1 4 2 5 3 8 4 12 5 15 6 2 7 1 8 6 9 7 10 13 11 14 12 9 13
REMARK SMILES IDX 10 14 11 15
REMARK H PARENT 11 16
ROOT
ATOM      1  C   UNL     1      -1.883  -0.814   0.000  1.00  0.00     0.126 A 
ATOM      2  C   UNL     1      -1.648   0.667   0.000  1.00  0.00     0.094 A 
ATOM      3  C   UNL     1      -0.247   1.204   0.000  1.00  0.00     0.140 A 
ATOM      4  C   UNL     1       0.918   0.259   0.000  1.00  0.00     0.143 A 
ATOM      5  C   UNL     1       0.682  -1.222   0.000  1.00  0.00     0.140 A 
ATOM      6  C   UNL     1      -0.719  -1.759   0.000  1.00  0.00     0.094 A 
ENDROOT
BRANCH   1   7
ATOM      7  O   UNL     1      -3.284  -1.350   0.000  1.00  0.00    -0.496 OA
ATOM      8  C   UNL     1      -4.449  -0.405   0.000  1.00  0.00     0.278 C 
ENDBRANCH   1   7
BRANCH   3   9
ATOM      9  O   UNL     1      -0.011   2.685   0.000  1.00  0.00    -0.496 OA
ATOM     10  C   UNL     1      -1.176   3.630   0.000  1.00  0.00     0.278 C 
ENDBRANCH   3   9
BRANCH   5  11
ATOM     11  O   UNL     1       1.847  -2.167   0.000  1.00  0.00    -0.496 OA
ATOM     12  C   UNL     1       1.611  -3.649   0.000  1.00  0.00     0.278 C 
ENDBRANCH   5  11
BRANCH   4  13
ATOM     13  C   UNL     1       2.319   0.795   0.000  1.00  0.00     0.343 C 
ATOM     14  O   UNL     1       2.555   2.276   0.000  1.00  0.00    -0.246 OA
BRANCH  13  15
ATOM     15  O   UNL     1       3.484  -0.150   0.000  1.00  0.00    -0.477 OA
ATOM     16  H   UNL     1       0.000   0.000   0.000  1.00  0.00     0.297 HD
ENDBRANCH  13  15
ENDBRANCH   4  13
TORSDOF 5
