REMARK SMILES C=C[C@]1(C)C=C2C(=O)C[C@H]3C(C)(C)CCC[C@]3(C)C2CC1
REMARK SMILES IDX 3 1 4 2 5 3 6 4 7 5 8 6 9 7 10 8 11 9 12 10 13 11 14 12
REMARK SMILES IDX 15 13 16 14 17 15 18 16 19 17 20 18 21 19 2 20 1 21
REMARK H PARENT
ROOT
ATOM      1  C   UNL     1       3.357   0.575   0.000  1.00  0.00     0.004 C 
ATOM      2  C   UNL     1       4.542   1.494   0.000  1.00  0.00     0.020 C 
ATOM      3  C   UNL     1       2.556  -0.694   0.000  1.00  0.00    -0.009 C 
ATOM      4  C   UNL     1       1.058  -0.635   0.000  1.00  0.00    -0.004 C 
ATOM      5  C   UNL     1       0.257  -1.904   0.000  1.00  0.00     0.159 C 
ATOM      6  O   UNL     1       0.956  -3.231   0.000  1.00  0.00    -0.295 OA
ATOM      7  C   UNL     1      -1.242  -1.845   0.000  1.00  0.00     0.085 C 
ATOM      8  C   UNL     1      -1.940  -0.518   0.000  1.00  0.00     0.009 C 
ATOM      9  C   UNL     1      -3.439  -0.459   0.000  1.00  0.00    -0.032 C 
ATOM     10  C   UNL     1      -4.867  -0.917   0.000  1.00  0.00     0.011 C 
ATOM     11  C   UNL     1      -3.236  -1.945   0.000  1.00  0.00     0.011 C 
ATOM     12  C   UNL     1      -4.138   0.868   0.000  1.00  0.00     0.007 C 
ATOM     13  C   UNL     1      -3.337   2.137   0.000  1.00  0.00     0.001 C 
ATOM     14  C   UNL     1      -1.839   2.078   0.000  1.00  0.00     0.008 C 
ATOM     15  C   UNL     1      -1.140   0.751   0.000  1.00  0.00    -0.022 C 
ATOM     16  C   UNL     1      -0.340   2.020   0.000  1.00  0.00     0.012 C 
ATOM     17  C   UNL     1       0.359   0.692   0.000  1.00  0.00     0.029 C 
ATOM     18  C   UNL     1       1.159   1.961   0.000  1.00  0.00     0.010 C 
ATOM     19  C   UNL     1       2.658   1.903   0.000  1.00  0.00     0.016 C 
ENDROOT
BRANCH   1  20
ATOM     20  C   UNL     1       4.467  -0.433   0.000  1.00  0.00    -0.024 C 
ATOM     21  C   UNL     1       4.149  -1.899   0.000  1.00  0.00     0.005 C 
ENDBRANCH   1  20
TORSDOF 1
