REMARK SMILES C[C@@H](C[C@@H](O)[C@H](O)C(C)(C)O)[C@@H]1CC[C@]2(C)C3=CC[C@H]4C(C)(C)[C@H](O)CC[C@]4(C)[C@H]3CC[C@@]12C
REMARK SMILES IDX 3 1 2 2 1 3 12 4 13 5 33 6 14 7 32 8 15 9 31 10 17 11 30 12
REMARK SMILES IDX 18 13 28 14 19 15 27 16 20 17 26 18 21 19 24 20 34 21 16 22
REMARK SMILES IDX 29 23 22 24 23 25 25 26 4 28 5 29 6 31 7 32 8 34 9 35 10 36
REMARK SMILES IDX 11 37
REMARK H PARENT 25 27 5 30 7 33 11 38
ROOT
ATOM      1  C   UNL     1       3.615   0.308   0.000  1.00  0.00     0.038 C 
ENDROOT
BRANCH   1   2
ATOM      2  C   UNL     1       3.236   1.760   0.000  1.00  0.00    -0.008 C 
ATOM      3  C   UNL     1       4.304   2.813   0.000  1.00  0.00     0.008 C 
BRANCH   2   4
ATOM      4  C   UNL     1       1.790   2.158   0.000  1.00  0.00    -0.001 C 
ATOM      5  C   UNL     1       1.262   3.562   0.000  1.00  0.00     0.005 C 
ATOM      6  C   UNL     1       0.618   1.222   0.000  1.00  0.00    -0.020 C 
ATOM      7  C   UNL     1      -0.236   3.494   0.000  1.00  0.00     0.012 C 
ATOM      8  C   UNL     1       0.529  -0.276   0.000  1.00  0.00     0.008 C 
ATOM      9  C   UNL     1      -0.634   2.047   0.000  1.00  0.00    -0.006 C 
ATOM     10  C   UNL     1      -0.812  -0.947   0.000  1.00  0.00     0.009 C 
ATOM     11  C   UNL     1      -1.976   1.376   0.000  1.00  0.00    -0.064 C 
ATOM     12  C   UNL     1      -2.064  -0.122   0.000  1.00  0.00     0.021 C 
ATOM     13  C   UNL     1      -3.228   2.201   0.000  1.00  0.00    -0.027 C 
ATOM     14  C   UNL     1      -3.405  -0.794   0.000  1.00  0.00    -0.022 C 
ATOM     15  C   UNL     1      -4.569   1.529   0.000  1.00  0.00     0.032 C 
ATOM     16  C   UNL     1      -3.494  -2.291   0.000  1.00  0.00     0.010 C 
ATOM     17  C   UNL     1      -4.658   0.032   0.000  1.00  0.00     0.007 C 
ATOM     18  C   UNL     1      -4.835  -2.963   0.000  1.00  0.00     0.033 C 
ATOM     19  C   UNL     1      -5.999  -0.640   0.000  1.00  0.00    -0.006 C 
ATOM     20  C   UNL     1      -6.088  -2.137   0.000  1.00  0.00     0.120 C 
ATOM     21  C   UNL     1       1.950   0.532   0.000  1.00  0.00     0.012 C 
ATOM     22  C   UNL     1      -1.794   2.999   0.000  1.00  0.00     0.017 C 
ATOM     23  C   UNL     1      -2.153  -1.619   0.000  1.00  0.00     0.012 C 
ATOM     24  C   UNL     1      -7.489  -0.812   0.000  1.00  0.00     0.014 C 
ATOM     25  C   UNL     1      -6.428   0.798   0.000  1.00  0.00     0.014 C 
BRANCH  20  26
ATOM     26  O   UNL     1      -7.429  -2.809   0.000  1.00  0.00    -0.393 OA
ATOM     27  H   UNL     1       0.000   0.000   0.000  1.00  0.00     0.210 HD
ENDBRANCH  20  26
ENDBRANCH   2   4
ENDBRANCH   1   2
BRANCH   1  28
ATOM     28  C   UNL     1       5.061  -0.090   0.000  1.00  0.00     0.146 C 
BRANCH  28  29
ATOM     29  O   UNL     1       6.129   0.963   0.000  1.00  0.00    -0.390 OA
ATOM     30  H   UNL     1       0.000   0.000   0.000  1.00  0.00     0.211 HD
ENDBRANCH  28  29
BRANCH  28  31
ATOM     31  C   UNL     1       5.439  -1.542   0.000  1.00  0.00     0.174 C 
BRANCH  31  32
ATOM     32  O   UNL     1       4.371  -2.595   0.000  1.00  0.00    -0.387 OA
ATOM     33  H   UNL     1       0.000   0.000   0.000  1.00  0.00     0.211 HD
ENDBRANCH  31  32
BRANCH  31  34
ATOM     34  C   UNL     1       6.885  -1.940   0.000  1.00  0.00     0.087 C 
ATOM     35  C   UNL     1       7.283  -0.493   0.000  1.00  0.00     0.044 C 
ATOM     36  C   UNL     1       6.487  -3.386   0.000  1.00  0.00     0.044 C 
BRANCH  34  37
ATOM     37  O   UNL     1       8.332  -2.338   0.000  1.00  0.00    -0.388 OA
ATOM     38  H   UNL     1       0.000   0.000   0.000  1.00  0.00     0.211 HD
ENDBRANCH  34  37
ENDBRANCH  31  34
ENDBRANCH  28  31
ENDBRANCH   1  28
TORSDOF 9
