REMARK SMILES CCCCCCCO
REMARK SMILES IDX 5 1 4 2 3 3 2 4 1 5 6 6 7 7 8 8
REMARK H PARENT 8 9
ROOT
ATOM      1  C   UNL     1       0.639  -0.393   0.000  1.00  0.00     0.002 C 
ENDROOT
BRANCH   1   2
ATOM      2  C   UNL     1      -0.639   0.393   0.000  1.00  0.00     0.000 C 
BRANCH   2   3
ATOM      3  C   UNL     1      -1.958  -0.321   0.000  1.00  0.00    -0.000 C 
BRANCH   3   4
ATOM      4  C   UNL     1      -3.236   0.466   0.000  1.00  0.00    -0.003 C 
ATOM      5  C   UNL     1      -4.555  -0.248   0.000  1.00  0.00     0.004 C 
ENDBRANCH   3   4
ENDBRANCH   2   3
ENDBRANCH   1   2
BRANCH   1   6
ATOM      6  C   UNL     1       1.958   0.321   0.000  1.00  0.00     0.028 C 
BRANCH   6   7
ATOM      7  C   UNL     1       3.236  -0.466   0.000  1.00  0.00     0.156 C 
BRANCH   7   8
ATOM      8  O   UNL     1       4.555   0.248   0.000  1.00  0.00    -0.396 OA
ATOM      9  H   UNL     1       0.000   0.000   0.000  1.00  0.00     0.210 HD
ENDBRANCH   7   8
ENDBRANCH   6   7
ENDBRANCH   1   6
TORSDOF 6
