REMARK SMILES COc1ccc(-c2oc3cc(OC)c(O)c(O)c3c(=O)c2OC)c(O)c1O
REMARK SMILES IDX 7 1 21 2 19 3 20 4 18 5 16 6 14 7 11 8 10 9 9 10 8 11 6 12
REMARK SMILES IDX 3 13 4 14 26 15 5 16 24 17 2 18 1 19 27 20 25 22 22 24 23 25
REMARK SMILES IDX 17 26 12 28 13 29 15 30
REMARK H PARENT 27 21 25 23 17 27 15 31
ROOT
ATOM      1  C   UNL     1      -0.545  -0.337   0.000  1.00  0.00     0.184 A 
ATOM      2  C   UNL     1      -0.050  -1.754   0.000  1.00  0.00     0.211 A 
ATOM      3  C   UNL     1       1.424  -2.033   0.000  1.00  0.00     0.239 A 
ATOM      4  O   UNL     1       1.918  -3.449   0.000  1.00  0.00    -0.285 OA
ATOM      5  C   UNL     1       2.403  -0.897   0.000  1.00  0.00     0.115 A 
ATOM      6  C   UNL     1       3.876  -1.177   0.000  1.00  0.00     0.176 A 
ATOM      7  C   UNL     1       4.856  -0.040   0.000  1.00  0.00     0.201 A 
ATOM      8  C   UNL     1       4.361   1.376   0.000  1.00  0.00     0.168 A 
ATOM      9  C   UNL     1       2.887   1.656   0.000  1.00  0.00     0.098 A 
ATOM     10  C   UNL     1       1.908   0.519   0.000  1.00  0.00     0.146 A 
ATOM     11  O   UNL     1       0.434   0.799   0.000  1.00  0.00    -0.451 OA
ENDROOT
BRANCH   1  12
ATOM     12  C   UNL     1      -2.018  -0.058   0.000  1.00  0.00     0.067 A 
ATOM     13  C   UNL     1      -4.966   0.502   0.000  1.00  0.00     0.164 A 
ATOM     14  C   UNL     1      -4.471  -0.914   0.000  1.00  0.00     0.051 A 
ATOM     15  C   UNL     1      -3.987   1.638   0.000  1.00  0.00     0.201 A 
ATOM     16  C   UNL     1      -2.998  -1.194   0.000  1.00  0.00     0.020 A 
ATOM     17  C   UNL     1      -2.513   1.359   0.000  1.00  0.00     0.172 A 
BRANCH  13  18
ATOM     18  O   UNL     1      -6.439   0.782   0.000  1.00  0.00    -0.493 OA
ATOM     19  C   UNL     1      -7.418  -0.355   0.000  1.00  0.00     0.278 C 
ENDBRANCH  13  18
BRANCH  15  20
ATOM     20  O   UNL     1      -4.481   3.054   0.000  1.00  0.00    -0.502 OA
ATOM     21  H   UNL     1       0.000   0.000   0.000  1.00  0.00     0.293 HD
ENDBRANCH  15  20
BRANCH  17  22
ATOM     22  O   UNL     1      -1.534   2.495   0.000  1.00  0.00    -0.504 OA
ATOM     23  H   UNL     1       0.000   0.000   0.000  1.00  0.00     0.293 HD
ENDBRANCH  17  22
ENDBRANCH   1  12
BRANCH   2  24
ATOM     24  O   UNL     1      -1.029  -2.890   0.000  1.00  0.00    -0.490 OA
ATOM     25  C   UNL     1      -2.503  -2.610   0.000  1.00  0.00     0.278 C 
ENDBRANCH   2  24
BRANCH   6  26
ATOM     26  O   UNL     1       4.371  -2.593   0.000  1.00  0.00    -0.504 OA
ATOM     27  H   UNL     1       0.000   0.000   0.000  1.00  0.00     0.293 HD
ENDBRANCH   6  26
BRANCH   8  28
ATOM     28  O   UNL     1       5.340   2.512   0.000  1.00  0.00    -0.493 OA
ATOM     29  C   UNL     1       4.845   3.928   0.000  1.00  0.00     0.278 C 
ENDBRANCH   8  28
BRANCH   7  30
ATOM     30  O   UNL     1       6.329  -0.320   0.000  1.00  0.00    -0.502 OA
ATOM     31  H   UNL     1       0.000   0.000   0.000  1.00  0.00     0.293 HD
ENDBRANCH   7  30
TORSDOF 8
