REMARK SMILES C[C@H](/C=C/C1=CC2=C(Cl)C(=O)[C@@]3(C)O[C@]4(O)[C@H](C)[C@@H](C)OC(=O)[C@@H]4[C@H]3C2=CO1)[C@@H](C)O
REMARK SMILES IDX 3 1 2 2 1 3 29 4 30 5 31 6 4 8 5 9 6 10 28 11 7 12 27 13
REMARK SMILES IDX 8 14 26 15 10 16 25 17 12 18 24 19 14 20 22 21 15 22 21 23
REMARK SMILES IDX 17 24 19 25 9 26 11 27 13 28 23 29 18 30 20 31 16 32
REMARK H PARENT 31 7 16 33
ROOT
ATOM      1  C   UNL     1      -5.133  -1.389   0.000  1.00  0.00    -0.017 C 
ENDROOT
BRANCH   1   2
ATOM      2  C   UNL     1      -6.631  -1.468   0.000  1.00  0.00     0.037 C 
ATOM      3  C   UNL     1      -7.312  -2.804   0.000  1.00  0.00     0.015 C 
BRANCH   2   4
ATOM      4  C   UNL     1      -7.448  -0.210   0.000  1.00  0.00     0.118 C 
ATOM      5  C   UNL     1      -8.946  -0.288   0.000  1.00  0.00     0.039 C 
BRANCH   4   6
ATOM      6  O   UNL     1      -6.767   1.127   0.000  1.00  0.00    -0.393 OA
ATOM      7  H   UNL     1       0.000   0.000   0.000  1.00  0.00     0.210 HD
ENDBRANCH   4   6
ENDBRANCH   2   4
ENDBRANCH   1   2
BRANCH   1   8
ATOM      8  C   UNL     1      -4.452  -0.053   0.000  1.00  0.00     0.043 C 
BRANCH   8   9
ATOM      9  C   UNL     1      -2.954   0.026   0.000  1.00  0.00     0.126 C 
ATOM     10  C   UNL     1      -2.273   1.362   0.000  1.00  0.00     0.057 C 
ATOM     11  O   UNL     1      -2.137  -1.232   0.000  1.00  0.00    -0.465 OA
ATOM     12  C   UNL     1      -0.775   1.441   0.000  1.00  0.00     0.007 C 
ATOM     13  C   UNL     1      -0.639  -1.154   0.000  1.00  0.00     0.200 C 
ATOM     14  C   UNL     1      -0.094   2.777   0.000  1.00  0.00     0.094 C 
ATOM     15  C   UNL     1       0.042   0.183   0.000  1.00  0.00     0.004 C 
ATOM     16  C   UNL     1       1.404   2.856   0.000  1.00  0.00     0.207 C 
ATOM     17  C   UNL     1       1.540   0.261   0.000  1.00  0.00     0.083 C 
ATOM     18  C   UNL     1       2.221   1.598   0.000  1.00  0.00     0.140 C 
ATOM     19  C   UNL     1       2.601  -0.799   0.000  1.00  0.00     0.170 C 
ATOM     20  O   UNL     1       3.702   1.363   0.000  1.00  0.00    -0.334 OA
ATOM     21  C   UNL     1       2.522  -2.297   0.000  1.00  0.00     0.315 C 
ATOM     22  C   UNL     1       3.937  -0.118   0.000  1.00  0.00     0.187 C 
ATOM     23  O   UNL     1       3.780  -3.114   0.000  1.00  0.00    -0.462 OA
ATOM     24  C   UNL     1       5.195  -0.935   0.000  1.00  0.00     0.087 C 
ATOM     25  C   UNL     1       5.117  -2.433   0.000  1.00  0.00     0.181 C 
ATOM     26  Cl  UNL     1      -0.911   4.035   0.000  1.00  0.00    -0.080 Cl
ATOM     27  O   UNL     1       2.085   4.192   0.000  1.00  0.00    -0.290 OA
ATOM     28  C   UNL     1       3.038   2.856   0.000  1.00  0.00     0.052 C 
ATOM     29  O   UNL     1       1.186  -2.978   0.000  1.00  0.00    -0.252 OA
ATOM     30  C   UNL     1       6.532  -0.254   0.000  1.00  0.00     0.017 C 
ATOM     31  C   UNL     1       6.375  -3.250   0.000  1.00  0.00     0.053 C 
BRANCH  22  32
ATOM     32  O   UNL     1       5.195   0.699   0.000  1.00  0.00    -0.364 OA
ATOM     33  H   UNL     1       0.000   0.000   0.000  1.00  0.00     0.214 HD
ENDBRANCH  22  32
ENDBRANCH   8   9
ENDBRANCH   1   8
TORSDOF 6
