REMARK SMILES COC(=O)c1cc(O)c(O)c(O)c1
REMARK SMILES IDX 5 1 6 2 7 3 9 4 11 5 13 6 3 7 4 8 2 9 1 10 8 11 12 13 10 15
REMARK H PARENT 8 12 12 14 10 16
ROOT
ATOM      1  C   UNL     1      -0.735  -0.181   0.000  1.00  0.00     0.067 A 
ATOM      2  C   UNL     1      -0.131   1.192   0.000  1.00  0.00     0.066 A 
ATOM      3  C   UNL     1       1.360   1.356   0.000  1.00  0.00     0.162 A 
ATOM      4  C   UNL     1       2.247   0.147   0.000  1.00  0.00     0.200 A 
ATOM      5  C   UNL     1       1.644  -1.226   0.000  1.00  0.00     0.162 A 
ATOM      6  C   UNL     1       0.153  -1.391   0.000  1.00  0.00     0.066 A 
ENDROOT
BRANCH   1   7
ATOM      7  C   UNL     1      -2.225  -0.346   0.000  1.00  0.00     0.338 C 
ATOM      8  O   UNL     1      -2.829  -1.719   0.000  1.00  0.00    -0.246 OA
BRANCH   7   9
ATOM      9  O   UNL     1      -3.113   0.864   0.000  1.00  0.00    -0.465 OA
ATOM     10  C   UNL     1      -4.604   0.699   0.000  1.00  0.00     0.282 C 
ENDBRANCH   7   9
ENDBRANCH   1   7
BRANCH   3  11
ATOM     11  O   UNL     1       1.963   2.729   0.000  1.00  0.00    -0.504 OA
ATOM     12  H   UNL     1       0.000   0.000   0.000  1.00  0.00     0.293 HD
ENDBRANCH   3  11
BRANCH   5  13
ATOM     13  O   UNL     1       2.532  -2.436   0.000  1.00  0.00    -0.504 OA
ATOM     14  H   UNL     1       0.000   0.000   0.000  1.00  0.00     0.293 HD
ENDBRANCH   5  13
BRANCH   4  15
ATOM     15  O   UNL     1       3.738   0.311   0.000  1.00  0.00    -0.502 OA
ATOM     16  H   UNL     1       0.000   0.000   0.000  1.00  0.00     0.293 HD
ENDBRANCH   4  15
TORSDOF 5
