REMARK SMILES O=C1c2ccc(O)cc2O[C@@H](c2ccccc2)[C@@H]1O
REMARK SMILES IDX 1 1 2 2 3 3 4 4 5 5 6 6 8 7 9 8 10 9 11 10 18 11 19 12 12 14
REMARK SMILES IDX 13 15 17 16 14 17 16 18 15 19 7 20
REMARK H PARENT 19 13 7 21
ROOT
ATOM      1  O   UNL     1       1.345  -3.314   0.000  1.00  0.00    -0.291 OA
ATOM      2  C   UNL     1       0.944  -1.868   0.000  1.00  0.00     0.199 C 
ATOM      3  C   UNL     1       1.995  -0.798   0.000  1.00  0.00     0.063 A 
ATOM      4  C   UNL     1       3.447  -1.174   0.000  1.00  0.00     0.019 A 
ATOM      5  C   UNL     1       4.499  -0.104   0.000  1.00  0.00     0.047 A 
ATOM      6  C   UNL     1       4.098   1.341   0.000  1.00  0.00     0.119 A 
ATOM      7  C   UNL     1       2.646   1.717   0.000  1.00  0.00     0.093 A 
ATOM      8  C   UNL     1       1.594   0.647   0.000  1.00  0.00     0.135 A 
ATOM      9  O   UNL     1       0.142   1.022   0.000  1.00  0.00    -0.482 OA
ATOM     10  C   UNL     1      -0.909  -0.047   0.000  1.00  0.00     0.240 C 
ATOM     11  C   UNL     1      -0.508  -1.493   0.000  1.00  0.00     0.231 C 
ENDROOT
BRANCH  11  12
ATOM     12  O   UNL     1      -1.560  -2.563   0.000  1.00  0.00    -0.381 OA
ATOM     13  H   UNL     1       0.000   0.000   0.000  1.00  0.00     0.211 HD
ENDBRANCH  11  12
BRANCH  10  14
ATOM     14  C   UNL     1      -2.361   0.328   0.000  1.00  0.00    -0.005 A 
ATOM     15  C   UNL     1      -2.762   1.774   0.000  1.00  0.00     0.007 A 
ATOM     16  C   UNL     1      -3.413  -0.742   0.000  1.00  0.00     0.007 A 
ATOM     17  C   UNL     1      -4.215   2.149   0.000  1.00  0.00     0.000 A 
ATOM     18  C   UNL     1      -4.865  -0.366   0.000  1.00  0.00     0.000 A 
ATOM     19  C   UNL     1      -5.266   1.079   0.000  1.00  0.00     0.000 A 
ENDBRANCH  10  14
BRANCH   6  20
ATOM     20  O   UNL     1       5.149   2.411   0.000  1.00  0.00    -0.508 OA
ATOM     21  H   UNL     1       0.000   0.000   0.000  1.00  0.00     0.293 HD
ENDBRANCH   6  20
TORSDOF 3
