REMARK SMILES CC1=CCC(=C(C)C)CCC(C)=CCC1
REMARK SMILES IDX 4 1 3 2 2 3 1 4 15 5 14 6 13 7 5 9 6 10 7 11 8 12 9 13 10 14
REMARK SMILES IDX 11 15 12 16
REMARK H PARENT
REMARK Flexibility Score:   24.900
ROOT
ATOM      1  C   UNL     1      -1.240  -1.427   0.000  1.00  0.00     0.058 C 
ENDROOT
BRANCH   1   2
ATOM      2  C   UNL     1      -0.026  -2.308   0.000  1.00  0.00    -0.024 C 
BRANCH   2   3
ATOM      3  C   UNL     1       1.474  -2.308   0.000  1.00  0.00    -0.077 C 
ATOM      4  C   UNL     1       1.937  -3.735   0.000  1.00  0.00     0.039 C 
BRANCH   3   5
ATOM      5  C   UNL     1       2.687  -1.427   0.000  1.00  0.00     0.034 C 
BRANCH   5   6
ATOM      6  C   UNL     1       3.151   0.000   0.000  1.00  0.00     0.032 C 
BRANCH   6   7
ATOM      7  C   UNL     1       2.687   1.427   0.000  1.00  0.00    -0.028 CG0
ATOM      8  G   UNL     1       1.474   2.308   0.000  1.00  0.00     0.000 G0
ENDBRANCH   6   7
ENDBRANCH   5   6
ENDBRANCH   3   5
ENDBRANCH   2   3
ENDBRANCH   1   2
BRANCH   1   9
ATOM      9  C   UNL     1      -1.703  -0.000   0.000  1.00  0.00    -0.067 C 
BRANCH   9  10
ATOM     10  C   UNL     1      -3.203  -0.000   0.000  1.00  0.00    -0.077 C 
ATOM     11  C   UNL     1      -3.953   1.299   0.000  1.00  0.00     0.039 C 
ATOM     12  C   UNL     1      -3.953  -1.299   0.000  1.00  0.00     0.039 C 
ENDBRANCH   9  10
BRANCH   9  13
ATOM     13  C   UNL     1      -1.240   1.427   0.000  1.00  0.00     0.035 C 
BRANCH  13  14
ATOM     14  C   UNL     1      -0.026   2.308   0.000  1.00  0.00     0.035 C 
BRANCH  14  15
ATOM     15  C   UNL     1       1.474   2.308   0.000  1.00  0.00    -0.077 CG0
ATOM     16  C   UNL     1       1.937   3.735   0.000  1.00  0.00     0.039 C 
ATOM     17  G   UNL     1       2.687   1.427   0.000  1.00  0.00     0.000 G0
ENDBRANCH  14  15
ENDBRANCH  13  14
ENDBRANCH   9  13
ENDBRANCH   1   9
TORSDOF 1
