REMARK SMILES CC[C@H]1C(=O)CC2C3CCC4C[C@@H](O)[C@@H](O)C[C@]4(C)C3CC[C@@]21C
REMARK SMILES IDX 3 1 4 2 5 3 6 4 7 5 8 6 9 7 10 8 11 9 12 10 13 11 15 12
REMARK SMILES IDX 17 13 18 14 19 15 20 16 21 17 22 18 23 19 24 20 2 21 1 22
REMARK SMILES IDX 16 23 14 25
REMARK H PARENT 16 24 14 26
ROOT
ATOM      1  C   UNL     1       3.910  -0.357   0.000  1.00  0.00     0.062 C 
ATOM      2  C   UNL     1       4.221   1.110   0.000  1.00  0.00     0.136 C 
ATOM      3  O   UNL     1       5.591   1.721   0.000  1.00  0.00    -0.299 OA
ATOM      4  C   UNL     1       2.922   1.859   0.000  1.00  0.00     0.080 C 
ATOM      5  C   UNL     1       1.808   0.855   0.000  1.00  0.00     0.006 C 
ATOM      6  C   UNL     1       0.316   1.011   0.000  1.00  0.00    -0.003 C 
ATOM      7  C   UNL     1      -0.295   2.381   0.000  1.00  0.00     0.004 C 
ATOM      8  C   UNL     1      -1.787   2.538   0.000  1.00  0.00     0.004 C 
ATOM      9  C   UNL     1      -2.668   1.324   0.000  1.00  0.00    -0.002 C 
ATOM     10  C   UNL     1      -4.160   1.480   0.000  1.00  0.00     0.038 C 
ATOM     11  C   UNL     1      -5.041   0.266   0.000  1.00  0.00     0.143 C 
ATOM     12  C   UNL     1      -4.430  -1.104   0.000  1.00  0.00     0.143 C 
ATOM     13  C   UNL     1      -2.938  -1.260   0.000  1.00  0.00     0.041 C 
ATOM     14  C   UNL     1      -2.057  -0.046   0.000  1.00  0.00    -0.024 C 
ATOM     15  C   UNL     1      -1.447  -1.417   0.000  1.00  0.00     0.012 C 
ATOM     16  C   UNL     1      -0.565  -0.203   0.000  1.00  0.00    -0.001 C 
ATOM     17  C   UNL     1       0.045  -1.573   0.000  1.00  0.00     0.005 C 
ATOM     18  C   UNL     1       1.537  -1.729   0.000  1.00  0.00     0.008 C 
ATOM     19  C   UNL     1       2.418  -0.515   0.000  1.00  0.00    -0.019 C 
ATOM     20  C   UNL     1       3.169  -1.814   0.000  1.00  0.00     0.012 C 
ENDROOT
BRANCH   1  21
ATOM     21  C   UNL     1       4.914  -1.472   0.000  1.00  0.00     0.008 C 
ATOM     22  C   UNL     1       6.381  -1.159   0.000  1.00  0.00     0.005 C 
ENDBRANCH   1  21
BRANCH  12  23
ATOM     23  O   UNL     1      -5.311  -2.318   0.000  1.00  0.00    -0.390 OA
ATOM     24  H   UNL     1       0.000   0.000   0.000  1.00  0.00     0.211 HD
ENDBRANCH  12  23
BRANCH  11  25
ATOM     25  O   UNL     1      -6.533   0.422   0.000  1.00  0.00    -0.390 OA
ATOM     26  H   UNL     1       0.000   0.000   0.000  1.00  0.00     0.211 HD
ENDBRANCH  11  25
TORSDOF 3
