REMARK SMILES C=C1[C@H]2[C@H](O[C@@H]3O[C@H](CO)[C@@H](O)[C@H](O)[C@H]3O)OC=C(C(=O)OC)[C@H]2[C@H](O)[C@H]1O
REMARK SMILES IDX 5 1 4 2 2 3 3 4 27 5 24 6 25 7 17 8 19 9 18 10 1 11 28 12
REMARK SMILES IDX 26 14 20 16 21 17 22 18 23 19 6 20 7 21 15 22 8 23 13 24
REMARK SMILES IDX 11 25 16 26 9 28 10 29 14 31 12 33
REMARK H PARENT 28 13 26 15 16 27 10 30 14 32 12 34
ROOT
ATOM      1  O   UNL     1      -1.105   1.190   0.000  1.00  0.00    -0.310 OA
ENDROOT
BRANCH   1   2
ATOM      2  C   UNL     1       0.191   0.435   0.000  1.00  0.00     0.316 C 
ATOM      3  C   UNL     1       1.809   2.647   0.000  1.00  0.00    -0.036 C 
ATOM      4  C   UNL     1       1.493   1.181   0.000  1.00  0.00     0.097 C 
ATOM      5  C   UNL     1       3.302   2.799   0.000  1.00  0.00     0.169 C 
ATOM      6  C   UNL     1       2.789   0.427   0.000  1.00  0.00     0.075 C 
ATOM      7  C   UNL     1       3.907   1.427   0.000  1.00  0.00     0.156 C 
ATOM      8  O   UNL     1       0.186  -1.065   0.000  1.00  0.00    -0.471 OA
ATOM      9  C   UNL     1       2.784  -1.073   0.000  1.00  0.00     0.078 C 
ATOM     10  C   UNL     1       1.483  -1.819   0.000  1.00  0.00     0.202 C 
ATOM     11  C   UNL     1       0.809   3.765   0.000  1.00  0.00     0.011 C 
BRANCH   5  12
ATOM     12  O   UNL     1       4.056   4.096   0.000  1.00  0.00    -0.386 OA
ATOM     13  H   UNL     1       0.000   0.000   0.000  1.00  0.00     0.211 HD
ENDBRANCH   5  12
BRANCH   7  14
ATOM     14  O   UNL     1       5.373   1.111   0.000  1.00  0.00    -0.389 OA
ATOM     15  H   UNL     1       0.000   0.000   0.000  1.00  0.00     0.211 HD
ENDBRANCH   7  14
BRANCH   9  16
ATOM     16  C   UNL     1       4.081  -1.827   0.000  1.00  0.00     0.337 C 
ATOM     17  O   UNL     1       5.383  -1.081   0.000  1.00  0.00    -0.246 OA
BRANCH  16  18
ATOM     18  O   UNL     1       4.076  -3.327   0.000  1.00  0.00    -0.466 OA
ATOM     19  C   UNL     1       5.373  -4.081   0.000  1.00  0.00     0.282 C 
ENDBRANCH  16  18
ENDBRANCH   9  16
ENDBRANCH   1   2
BRANCH   1  20
ATOM     20  C   UNL     1      -2.407   0.444   0.000  1.00  0.00     0.286 C 
ATOM     21  O   UNL     1      -3.703   1.198   0.000  1.00  0.00    -0.341 OA
ATOM     22  C   UNL     1      -2.412  -1.056   0.000  1.00  0.00     0.202 C 
ATOM     23  C   UNL     1      -5.005   0.452   0.000  1.00  0.00     0.178 C 
ATOM     24  C   UNL     1      -3.713  -1.802   0.000  1.00  0.00     0.179 C 
ATOM     25  C   UNL     1      -5.010  -1.048   0.000  1.00  0.00     0.177 C 
BRANCH  22  26
ATOM     26  O   UNL     1      -1.115  -1.810   0.000  1.00  0.00    -0.385 OA
ATOM     27  H   UNL     1       0.000   0.000   0.000  1.00  0.00     0.211 HD
ENDBRANCH  22  26
BRANCH  23  28
ATOM     28  C   UNL     1      -6.301   1.206   0.000  1.00  0.00     0.191 C 
BRANCH  28  29
ATOM     29  O   UNL     1      -6.297   2.706   0.000  1.00  0.00    -0.394 OA
ATOM     30  H   UNL     1       0.000   0.000   0.000  1.00  0.00     0.210 HD
ENDBRANCH  28  29
ENDBRANCH  23  28
BRANCH  24  31
ATOM     31  O   UNL     1      -3.718  -3.302   0.000  1.00  0.00    -0.387 OA
ATOM     32  H   UNL     1       0.000   0.000   0.000  1.00  0.00     0.211 HD
ENDBRANCH  24  31
BRANCH  25  33
ATOM     33  O   UNL     1      -6.311  -1.794   0.000  1.00  0.00    -0.387 OA
ATOM     34  H   UNL     1       0.000   0.000   0.000  1.00  0.00     0.211 HD
ENDBRANCH  25  33
ENDBRANCH   1  20
TORSDOF 11
