REMARK SMILES COc1ccn(C)c(=O)c1C#N
REMARK SMILES IDX 3 1 10 2 8 3 9 4 6 5 7 6 5 7 4 8 2 9 1 10 11 11 12 12
REMARK H PARENT
ROOT
ATOM      1  C   UNL     1       1.000   0.649   0.000  1.00  0.00     0.143 A 
ATOM      2  C   UNL     1       0.250  -0.649   0.000  1.00  0.00     0.159 A 
ATOM      3  C   UNL     1      -1.250  -0.649   0.000  1.00  0.00     0.272 A 
ATOM      4  O   UNL     1      -2.000  -1.949   0.000  1.00  0.00    -0.268 OA
ATOM      5  N   UNL     1      -2.000   0.649   0.000  1.00  0.00    -0.317 N 
ATOM      6  C   UNL     1      -3.500   0.649   0.000  1.00  0.00     0.153 C 
ATOM      7  C   UNL     1      -1.250   1.949   0.000  1.00  0.00     0.093 A 
ATOM      8  C   UNL     1       0.250   1.949   0.000  1.00  0.00     0.066 A 
ENDROOT
BRANCH   1   9
ATOM      9  O   UNL     1       2.500   0.649   0.000  1.00  0.00    -0.495 OA
ATOM     10  C   UNL     1       3.250   1.949   0.000  1.00  0.00     0.278 C 
ENDBRANCH   1   9
BRANCH   2  11
ATOM     11  C   UNL     1       1.000  -1.949   0.000  1.00  0.00     0.109 C 
ATOM     12  N   UNL     1       1.750  -3.248   0.000  1.00  0.00    -0.192 NA
ENDBRANCH   2  11
TORSDOF 2
