REMARK SMILES C=C[C@]1(COC(C)=O)CC[C@@H](C(C)(C)O)C[C@H]1C(=C)C
REMARK SMILES IDX 3 1 9 2 10 3 11 4 16 5 17 6 2 7 1 8 4 9 5 10 6 11 7 12 8 13
REMARK SMILES IDX 18 14 19 15 20 16 12 17 13 18 14 19 15 20
REMARK H PARENT 15 21
ROOT
ATOM      1  C   UNL     1      -0.580  -0.499   0.000  1.00  0.00     0.029 C 
ATOM      2  C   UNL     1      -0.456   0.996   0.000  1.00  0.00     0.016 C 
ATOM      3  C   UNL     1       0.901   1.636   0.000  1.00  0.00     0.007 C 
ATOM      4  C   UNL     1       2.134   0.781   0.000  1.00  0.00     0.021 C 
ATOM      5  C   UNL     1       2.010  -0.714   0.000  1.00  0.00     0.015 C 
ATOM      6  C   UNL     1       0.653  -1.354   0.000  1.00  0.00     0.028 C 
ENDROOT
BRANCH   1   7
ATOM      7  C   UNL     1      -1.207  -1.861   0.000  1.00  0.00    -0.024 C 
ATOM      8  C   UNL     1      -2.701  -1.999   0.000  1.00  0.00     0.005 C 
ENDBRANCH   1   7
BRANCH   1   9
ATOM      9  C   UNL     1      -2.030  -0.117   0.000  1.00  0.00     0.244 C 
BRANCH   9  10
ATOM     10  O   UNL     1      -2.425   1.330   0.000  1.00  0.00    -0.465 OA
BRANCH  10  11
ATOM     11  C   UNL     1      -3.876   1.712   0.000  1.00  0.00     0.302 C 
ATOM     12  C   UNL     1      -4.270   3.159   0.000  1.00  0.00     0.139 C 
ATOM     13  O   UNL     1      -4.931   0.646   0.000  1.00  0.00    -0.253 OA
ENDBRANCH  10  11
ENDBRANCH   9  10
ENDBRANCH   1   9
BRANCH   6  14
ATOM     14  C   UNL     1       0.529  -2.849   0.000  1.00  0.00    -0.076 C 
ATOM     15  C   UNL     1       1.762  -3.703   0.000  1.00  0.00     0.008 C 
ATOM     16  C   UNL     1      -0.828  -3.489   0.000  1.00  0.00     0.039 C 
ENDBRANCH   6  14
BRANCH   4  17
ATOM     17  C   UNL     1       3.490   1.421   0.000  1.00  0.00     0.062 C 
ATOM     18  C   UNL     1       2.850   2.778   0.000  1.00  0.00     0.042 C 
ATOM     19  C   UNL     1       4.130   0.065   0.000  1.00  0.00     0.042 C 
BRANCH  17  20
ATOM     20  O   UNL     1       4.847   2.061   0.000  1.00  0.00    -0.390 OA
ATOM     21  H   UNL     1       0.000   0.000   0.000  1.00  0.00     0.211 HD
ENDBRANCH  17  20
ENDBRANCH   4  17
TORSDOF 7
