REMARK SMILES C=CCC=CCC=CCCCCCCCc1cccc(O)c1C(=O)O
REMARK SMILES IDX 10 1 9 2 8 3 7 4 6 5 5 6 4 7 3 8 2 9 1 10 11 11 12 12 13 13
REMARK SMILES IDX 14 14 15 15 16 16 17 17 22 18 18 19 20 20 19 21 23 22 24 23
REMARK SMILES IDX 25 24 21 26
REMARK H PARENT 25 25 21 27
ROOT
ATOM      1  C   UNL     1      -2.184   0.413   0.000  1.00  0.00     0.004 C 
ENDROOT
BRANCH   1   2
ATOM      2  C   UNL     1      -3.480  -0.342   0.000  1.00  0.00     0.027 C 
BRANCH   2   3
ATOM      3  C   UNL     1      -4.782   0.404   0.000  1.00  0.00    -0.031 C 
BRANCH   3   4
ATOM      4  C   UNL     1      -6.078  -0.350   0.000  1.00  0.00    -0.027 C 
BRANCH   4   5
ATOM      5  C   UNL     1      -7.380   0.395   0.000  1.00  0.00     0.054 C 
BRANCH   5   6
ATOM      6  C   UNL     1      -8.676  -0.359   0.000  1.00  0.00    -0.027 C 
BRANCH   6   7
ATOM      7  C   UNL     1      -9.978   0.387   0.000  1.00  0.00    -0.027 C 
BRANCH   7   8
ATOM      8  C   UNL     1     -11.274  -0.367   0.000  1.00  0.00     0.053 C 
BRANCH   8   9
ATOM      9  C   UNL     1     -12.576   0.378   0.000  1.00  0.00    -0.031 C 
ATOM     10  C   UNL     1     -13.873  -0.376   0.000  1.00  0.00     0.004 C 
ENDBRANCH   8   9
ENDBRANCH   7   8
ENDBRANCH   6   7
ENDBRANCH   5   6
ENDBRANCH   4   5
ENDBRANCH   3   4
ENDBRANCH   2   3
ENDBRANCH   1   2
BRANCH   1  11
ATOM     11  C   UNL     1      -0.882  -0.333   0.000  1.00  0.00     0.000 C 
BRANCH  11  12
ATOM     12  C   UNL     1       0.414   0.421   0.000  1.00  0.00     0.000 C 
BRANCH  12  13
ATOM     13  C   UNL     1       1.716  -0.324   0.000  1.00  0.00     0.000 C 
BRANCH  13  14
ATOM     14  C   UNL     1       3.012   0.430   0.000  1.00  0.00     0.005 C 
BRANCH  14  15
ATOM     15  C   UNL     1       4.314  -0.316   0.000  1.00  0.00     0.036 C 
BRANCH  15  16
ATOM     16  C   UNL     1       5.610   0.439   0.000  1.00  0.00    -0.030 A 
ATOM     17  C   UNL     1       5.605   1.939   0.000  1.00  0.00     0.005 A 
ATOM     18  C   UNL     1       6.912  -0.307   0.000  1.00  0.00     0.104 A 
ATOM     19  C   UNL     1       6.902   2.693   0.000  1.00  0.00     0.004 A 
ATOM     20  C   UNL     1       8.209   0.447   0.000  1.00  0.00     0.130 A 
ATOM     21  C   UNL     1       8.204   1.947   0.000  1.00  0.00     0.047 A 
BRANCH  18  22
ATOM     22  C   UNL     1       6.917  -1.807   0.000  1.00  0.00     0.339 C 
ATOM     23  O   UNL     1       5.620  -2.561   0.000  1.00  0.00    -0.246 OA
BRANCH  22  24
ATOM     24  O   UNL     1       8.219  -2.553   0.000  1.00  0.00    -0.478 OA
ATOM     25  H   UNL     1       0.000   0.000   0.000  1.00  0.00     0.297 HD
ENDBRANCH  22  24
ENDBRANCH  18  22
BRANCH  20  26
ATOM     26  O   UNL     1       9.510  -0.298   0.000  1.00  0.00    -0.507 OA
ATOM     27  H   UNL     1       0.000   0.000   0.000  1.00  0.00     0.293 HD
ENDBRANCH  20  26
ENDBRANCH  15  16
ENDBRANCH  14  15
ENDBRANCH  13  14
ENDBRANCH  12  13
ENDBRANCH  11  12
ENDBRANCH   1  11
TORSDOF 17
