REMARK SMILES O=Cc1ccccc1
REMARK SMILES IDX 1 1 2 2 3 3 4 4 8 5 5 6 7 7 6 8
REMARK H PARENT
ROOT
ATOM      1  O   UNL     1      -3.085   0.469   0.000  1.00  0.00    -0.298 OA
ATOM      2  C   UNL     1      -2.068  -0.633   0.000  1.00  0.00     0.260 C 
ENDROOT
BRANCH   2   3
ATOM      3  C   UNL     1      -0.605  -0.303   0.000  1.00  0.00     0.014 A 
ATOM      4  C   UNL     1      -0.159   1.129   0.000  1.00  0.00     0.011 A 
ATOM      5  C   UNL     1       0.413  -1.405   0.000  1.00  0.00     0.011 A 
ATOM      6  C   UNL     1       1.305   1.459   0.000  1.00  0.00     0.001 A 
ATOM      7  C   UNL     1       1.876  -1.075   0.000  1.00  0.00     0.001 A 
ATOM      8  C   UNL     1       2.322   0.357   0.000  1.00  0.00     0.000 A 
ENDBRANCH   2   3
TORSDOF 1
