REMARK SMILES C=CCOc1c(OC)cc2c(c1OC)O[C@H](c1ccc3c(c1)OCO3)[C@H]2C
REMARK SMILES IDX 4 1 3 2 2 3 1 4 5 5 6 6 12 7 9 8 11 9 10 10 15 11 26 12
REMARK SMILES IDX 16 13 27 14 7 15 8 16 13 17 14 18 17 19 18 20 22 21 19 22
REMARK SMILES IDX 21 23 20 24 23 25 25 26 24 27
REMARK H PARENT
ROOT
ATOM      1  O   UNL     1       4.834  -0.128   0.000  1.00  0.00    -0.482 OA
ENDROOT
BRANCH   1   2
ATOM      2  C   UNL     1       5.031  -1.615   0.000  1.00  0.00     0.257 C 
BRANCH   2   3
ATOM      3  C   UNL     1       6.418  -2.187   0.000  1.00  0.00     0.006 C 
ATOM      4  C   UNL     1       6.615  -3.674   0.000  1.00  0.00     0.007 C 
ENDBRANCH   2   3
ENDBRANCH   1   2
BRANCH   1   5
ATOM      5  C   UNL     1       3.447   0.445   0.000  1.00  0.00     0.207 A 
ATOM      6  C   UNL     1       3.250   1.931   0.000  1.00  0.00     0.165 A 
ATOM      7  C   UNL     1       2.258  -0.470   0.000  1.00  0.00     0.207 A 
ATOM      8  C   UNL     1       1.863   2.504   0.000  1.00  0.00     0.058 A 
ATOM      9  C   UNL     1       0.872   0.102   0.000  1.00  0.00     0.169 A 
ATOM     10  C   UNL     1       0.674   1.589   0.000  1.00  0.00     0.009 A 
ATOM     11  O   UNL     1      -0.481  -0.545   0.000  1.00  0.00    -0.481 OA
ATOM     12  C   UNL     1      -0.801   1.861   0.000  1.00  0.00     0.066 C 
ATOM     13  C   UNL     1      -1.515   0.542   0.000  1.00  0.00     0.211 C 
ATOM     14  C   UNL     1      -1.448   3.214   0.000  1.00  0.00     0.017 C 
BRANCH   6  15
ATOM     15  O   UNL     1       4.439   2.846   0.000  1.00  0.00    -0.493 OA
ATOM     16  C   UNL     1       5.825   2.274   0.000  1.00  0.00     0.278 C 
ENDBRANCH   6  15
BRANCH   7  17
ATOM     17  O   UNL     1       2.456  -1.957   0.000  1.00  0.00    -0.490 OA
ATOM     18  C   UNL     1       3.842  -2.529   0.000  1.00  0.00     0.278 C 
ENDBRANCH   7  17
BRANCH  13  19
ATOM     19  C   UNL     1      -3.002   0.344   0.000  1.00  0.00    -0.003 A 
ATOM     20  C   UNL     1      -3.917   1.533   0.000  1.00  0.00     0.011 A 
ATOM     21  C   UNL     1      -3.574  -1.042   0.000  1.00  0.00     0.058 A 
ATOM     22  C   UNL     1      -5.404   1.336   0.000  1.00  0.00     0.051 A 
ATOM     23  C   UNL     1      -5.061  -1.240   0.000  1.00  0.00     0.166 A 
ATOM     24  C   UNL     1      -5.976  -0.051   0.000  1.00  0.00     0.165 A 
ATOM     25  O   UNL     1      -5.909  -2.477   0.000  1.00  0.00    -0.454 OA
ATOM     26  O   UNL     1      -7.389  -0.553   0.000  1.00  0.00    -0.454 OA
ATOM     27  C   UNL     1      -7.348  -2.053   0.000  1.00  0.00     0.468 C 
ENDBRANCH  13  19
ENDBRANCH   1   5
TORSDOF 6
