REMARK SMILES COc1cc([C@H]2OC[C@H]3[C@@H]2CO[C@H]3c2ccc3c(c2)OCO3)ccc1O
REMARK SMILES IDX 3 1 4 2 5 3 23 4 24 5 25 6 2 7 1 8 26 9 6 11 7 12 10 13 8 14
REMARK SMILES IDX 9 15 11 16 13 17 12 18 14 19 15 20 19 21 16 22 18 23 17 24
REMARK SMILES IDX 20 25 22 26 21 27
REMARK H PARENT 26 10
ROOT
ATOM      1  C   UNL     1       5.860  -0.406   0.000  1.00  0.00     0.160 A 
ATOM      2  C   UNL     1       4.434  -0.872   0.000  1.00  0.00     0.056 A 
ATOM      3  C   UNL     1       3.318   0.130   0.000  1.00  0.00    -0.015 A 
ATOM      4  C   UNL     1       3.628   1.598   0.000  1.00  0.00     0.010 A 
ATOM      5  C   UNL     1       5.054   2.064   0.000  1.00  0.00     0.050 A 
ATOM      6  C   UNL     1       6.170   1.062   0.000  1.00  0.00     0.157 A 
ENDROOT
BRANCH   1   7
ATOM      7  O   UNL     1       6.976  -1.408   0.000  1.00  0.00    -0.493 OA
ATOM      8  C   UNL     1       6.667  -2.876   0.000  1.00  0.00     0.278 C 
ENDBRANCH   1   7
BRANCH   6   9
ATOM      9  O   UNL     1       7.596   1.527   0.000  1.00  0.00    -0.504 OA
ATOM     10  H   UNL     1       0.000   0.000   0.000  1.00  0.00     0.293 HD
ENDBRANCH   6   9
BRANCH   3  11
ATOM     11  C   UNL     1       1.892  -0.335   0.000  1.00  0.00     0.154 C 
ATOM     12  O   UNL     1       1.431  -1.763   0.000  1.00  0.00    -0.373 OA
ATOM     13  C   UNL     1       0.677   0.545   0.000  1.00  0.00     0.057 C 
ATOM     14  C   UNL     1      -0.069  -1.765   0.000  1.00  0.00     0.168 C 
ATOM     15  C   UNL     1      -0.535  -0.339   0.000  1.00  0.00     0.057 C 
ATOM     16  C   UNL     1       0.212   1.970   0.000  1.00  0.00     0.168 C 
ATOM     17  C   UNL     1      -1.750   0.541   0.000  1.00  0.00     0.154 C 
ATOM     18  O   UNL     1      -1.288   1.968   0.000  1.00  0.00    -0.373 OA
BRANCH  17  19
ATOM     19  C   UNL     1      -3.175   0.075   0.000  1.00  0.00    -0.015 A 
ATOM     20  C   UNL     1      -3.485  -1.392   0.000  1.00  0.00     0.010 A 
ATOM     21  C   UNL     1      -4.292   1.077   0.000  1.00  0.00     0.057 A 
ATOM     22  C   UNL     1      -4.911  -1.858   0.000  1.00  0.00     0.051 A 
ATOM     23  C   UNL     1      -5.718   0.612   0.000  1.00  0.00     0.166 A 
ATOM     24  C   UNL     1      -6.027  -0.856   0.000  1.00  0.00     0.165 A 
ATOM     25  O   UNL     1      -7.018   1.360   0.000  1.00  0.00    -0.454 OA
ATOM     26  O   UNL     1      -7.519  -1.015   0.000  1.00  0.00    -0.454 OA
ATOM     27  C   UNL     1      -8.131   0.354   0.000  1.00  0.00     0.468 C 
ENDBRANCH  17  19
ENDBRANCH   3  11
TORSDOF 4
