REMARK SMILES CC[C@H]1C[C@H]2CN3CCc4c([nH]c5cc(OC)ccc45)[C@](C(=O)OC)(C2)[C@H]13
REMARK SMILES IDX 3 1 4 2 5 3 6 4 7 5 21 6 26 7 27 8 2 9 1 10 11 11 10 12
REMARK SMILES IDX 12 13 20 14 13 15 19 16 14 17 18 18 15 19 9 21 16 23 17 24
REMARK SMILES IDX 22 25 23 26 24 27 25 28 8 29
REMARK H PARENT 12 20
REMARK Flexibility Score:   11.900
ROOT
ATOM      1  C   UNL     1      -3.997   0.213   0.000  1.00  0.00     0.008 C 
ATOM      2  C   UNL     1      -4.220  -1.271   0.000  1.00  0.00     0.010 C 
ATOM      3  C   UNL     1      -3.046  -2.205   0.000  1.00  0.00     0.005 C 
ATOM      4  C   UNL     1      -3.664  -0.838   0.000  1.00  0.00     0.088 C 
ATOM      5  N   UNL     1      -2.602   2.262   0.000  1.00  0.00    -0.298 NA
ATOM      6  C   UNL     1      -1.428  -0.173   0.000  1.00  0.00     0.124 C 
ATOM      7  C   UNL     1      -1.651  -1.656   0.000  1.00  0.00     0.031 C 
ATOM      8  C   UNL     1      -2.601   0.762   0.000  1.00  0.00     0.083 C 
ENDROOT
BRANCH   1   9
ATOM      9  C   UNL     1      -5.170   1.147   0.000  1.00  0.00     0.002 C 
ATOM     10  C   UNL     1      -6.566   0.599   0.000  1.00  0.00     0.004 C 
ENDBRANCH   1   9
BRANCH   6  11
ATOM     11  C   UNL     1       0.034   0.162   0.000  1.00  0.00     0.038 A 
ATOM     12  C   UNL     1       0.684   1.514   0.000  1.00  0.00    -0.017 A 
ATOM     13  N   UNL     1       1.119  -0.874   0.000  1.00  0.00    -0.357 N 
ATOM     14  C   UNL     1       2.171   1.313   0.000  1.00  0.00     0.003 A 
ATOM     15  C   UNL     1       2.440  -0.163   0.000  1.00  0.00     0.050 A 
ATOM     16  C   UNL     1       3.315   2.284   0.000  1.00  0.00     0.014 A 
ATOM     17  C   UNL     1       3.852  -0.668   0.000  1.00  0.00     0.073 A 
ATOM     18  C   UNL     1       4.727   1.779   0.000  1.00  0.00     0.047 A 
ATOM     19  C   UNL     1       4.996   0.303   0.000  1.00  0.00     0.120 A 
ATOM     20  H   UNL     1       0.000   0.000   0.000  1.00  0.00     0.166 HD
BRANCH  12  21
ATOM     21  C   UNL     1       0.033   2.865   0.000  1.00  0.00     0.053 CG0
ATOM     22  G   UNL     1      -1.430   3.198   0.000  1.00  0.00     0.000 G0
ENDBRANCH  12  21
BRANCH  19  23
ATOM     23  O   UNL     1       6.408  -0.202   0.000  1.00  0.00    -0.497 OA
ATOM     24  C   UNL     1       6.677  -1.678   0.000  1.00  0.00     0.278 C 
ENDBRANCH  19  23
ENDBRANCH   6  11
BRANCH   6  25
ATOM     25  C   UNL     1      -0.328  -1.192   0.000  1.00  0.00     0.319 C 
ATOM     26  O   UNL     1       0.468  -1.148   0.000  1.00  0.00    -0.251 OA
BRANCH  25  27
ATOM     27  O   UNL     1      -0.660  -2.655   0.000  1.00  0.00    -0.468 OA
ATOM     28  C   UNL     1       0.440  -3.675   0.000  1.00  0.00     0.282 C 
ENDBRANCH  25  27
ENDBRANCH   6  25
BRANCH   5  29
ATOM     29  C   UNL     1      -1.430   3.198   0.000  1.00  0.00     0.089 CG0
ATOM     30  G   UNL     1       0.033   2.865   0.000  1.00  0.00     0.000 G0
ENDBRANCH   5  29
TORSDOF 4
