REMARK SMILES C[N+](C)(C)[C@@H](Cc1c[nH]c2ccccc12)C(=O)[O-]
REMARK SMILES IDX 5 1 2 2 1 3 3 4 4 5 6 6 7 7 8 8 15 9 9 10 14 11 10 12 13 13
REMARK SMILES IDX 11 14 12 15 16 17 17 18 18 19
REMARK H PARENT 9 16
ROOT
ATOM      1  C   UNL     1      -2.086   0.424   0.000  1.00  0.00     0.236 C 
ENDROOT
BRANCH   1   2
ATOM      2  N   UNL     1      -2.327  -1.057   0.000  1.00  0.00    -0.323 N 
ATOM      3  C   UNL     1      -3.807  -0.817   0.000  1.00  0.00     0.334 C 
ATOM      4  C   UNL     1      -0.846  -1.297   0.000  1.00  0.00     0.334 C 
ATOM      5  C   UNL     1      -2.567  -2.538   0.000  1.00  0.00     0.334 C 
ENDBRANCH   1   2
BRANCH   1   6
ATOM      6  C   UNL     1      -0.684   0.956   0.000  1.00  0.00     0.109 C 
BRANCH   6   7
ATOM      7  C   UNL     1       0.478   0.008   0.000  1.00  0.00    -0.016 A 
ATOM      8  C   UNL     1       0.394  -1.490   0.000  1.00  0.00     0.087 A 
ATOM      9  C   UNL     1       1.929   0.391   0.000  1.00  0.00     0.003 A 
ATOM     10  N   UNL     1       1.792  -2.033   0.000  1.00  0.00    -0.361 N 
ATOM     11  C   UNL     1       2.614   1.724   0.000  1.00  0.00     0.010 A 
ATOM     12  C   UNL     1       2.741  -0.871   0.000  1.00  0.00     0.046 A 
ATOM     13  C   UNL     1       4.113   1.797   0.000  1.00  0.00     0.001 A 
ATOM     14  C   UNL     1       4.239  -0.798   0.000  1.00  0.00     0.026 A 
ATOM     15  C   UNL     1       4.925   0.536   0.000  1.00  0.00     0.002 A 
ATOM     16  H   UNL     1       0.000   0.000   0.000  1.00  0.00     0.166 HD
ENDBRANCH   6   7
ENDBRANCH   1   6
BRANCH   1  17
ATOM     17  C   UNL     1      -3.249   1.372   0.000  1.00  0.00     0.100 C 
ATOM     18  O   UNL     1      -3.009   2.853   0.000  1.00  0.00    -0.544 OA
ATOM     19  O   UNL     1      -4.651   0.840   0.000  1.00  0.00    -0.544 OA
ENDBRANCH   1  17
TORSDOF 4
