REMARK SMILES COC(=O)[C@]1(O)C[C@@H](O)[C@@H](O)[C@H](OC(=O)C=Cc2ccc(O)c(O)c2)C1
REMARK SMILES IDX 14 1 15 2 13 3 12 4 5 5 7 6 26 7 8 8 10 9 3 10 4 11 2 12
REMARK SMILES IDX 1 13 6 14 9 16 11 18 16 20 17 21 18 22 19 23 25 24 20 25
REMARK SMILES IDX 23 26 21 27 24 28 22 30
REMARK H PARENT 6 15 9 17 11 19 24 29 22 31
ROOT
ATOM      1  C   UNL     1       0.162   0.170   0.000  1.00  0.00     0.331 C 
ATOM      2  O   UNL     1      -0.416  -1.214   0.000  1.00  0.00    -0.247 OA
ENDROOT
BRANCH   1   3
ATOM      3  O   UNL     1      -0.748   1.363   0.000  1.00  0.00    -0.456 OA
BRANCH   3   4
ATOM      4  C   UNL     1      -2.235   1.171   0.000  1.00  0.00     0.211 C 
ATOM      5  C   UNL     1      -4.301  -0.405   0.000  1.00  0.00     0.168 C 
ATOM      6  C   UNL     1      -5.211   0.788   0.000  1.00  0.00     0.082 C 
ATOM      7  C   UNL     1      -2.813  -0.213   0.000  1.00  0.00     0.095 C 
ATOM      8  C   UNL     1      -4.633   2.172   0.000  1.00  0.00     0.150 C 
ATOM      9  C   UNL     1      -3.145   2.364   0.000  1.00  0.00     0.184 C 
BRANCH   5  10
ATOM     10  C   UNL     1      -3.854  -1.837   0.000  1.00  0.00     0.338 C 
ATOM     11  O   UNL     1      -2.390  -2.165   0.000  1.00  0.00    -0.249 OA
BRANCH  10  12
ATOM     12  O   UNL     1      -4.870  -2.940   0.000  1.00  0.00    -0.467 OA
ATOM     13  C   UNL     1      -4.423  -4.371   0.000  1.00  0.00     0.282 C 
ENDBRANCH  10  12
ENDBRANCH   5  10
BRANCH   5  14
ATOM     14  O   UNL     1      -5.633  -1.093   0.000  1.00  0.00    -0.378 OA
ATOM     15  H   UNL     1       0.000   0.000   0.000  1.00  0.00     0.212 HD
ENDBRANCH   5  14
BRANCH   8  16
ATOM     16  O   UNL     1      -5.543   3.365   0.000  1.00  0.00    -0.390 OA
ATOM     17  H   UNL     1       0.000   0.000   0.000  1.00  0.00     0.211 HD
ENDBRANCH   8  16
BRANCH   9  18
ATOM     18  O   UNL     1      -2.567   3.748   0.000  1.00  0.00    -0.387 OA
ATOM     19  H   UNL     1       0.000   0.000   0.000  1.00  0.00     0.211 HD
ENDBRANCH   9  18
ENDBRANCH   3   4
ENDBRANCH   1   3
BRANCH   1  20
ATOM     20  C   UNL     1       1.650   0.362   0.000  1.00  0.00     0.094 C 
BRANCH  20  21
ATOM     21  C   UNL     1       2.560  -0.831   0.000  1.00  0.00     0.016 C 
BRANCH  21  22
ATOM     22  C   UNL     1       4.047  -0.639   0.000  1.00  0.00    -0.021 A 
ATOM     23  C   UNL     1       4.957  -1.832   0.000  1.00  0.00     0.012 A 
ATOM     24  C   UNL     1       4.625   0.745   0.000  1.00  0.00     0.058 A 
ATOM     25  C   UNL     1       6.445  -1.641   0.000  1.00  0.00     0.051 A 
ATOM     26  C   UNL     1       6.113   0.936   0.000  1.00  0.00     0.157 A 
ATOM     27  C   UNL     1       7.023  -0.256   0.000  1.00  0.00     0.157 A 
BRANCH  26  28
ATOM     28  O   UNL     1       6.691   2.320   0.000  1.00  0.00    -0.504 OA
ATOM     29  H   UNL     1       0.000   0.000   0.000  1.00  0.00     0.293 HD
ENDBRANCH  26  28
BRANCH  27  30
ATOM     30  O   UNL     1       8.511  -0.065   0.000  1.00  0.00    -0.504 OA
ATOM     31  H   UNL     1       0.000   0.000   0.000  1.00  0.00     0.293 HD
ENDBRANCH  27  30
ENDBRANCH  21  22
ENDBRANCH  20  21
ENDBRANCH   1  20
TORSDOF 12
