REMARK SMILES CC(C)c1cc2c(c(O)c1O)[C@@]13CCCC(C)(C)C1C[C@@H]2OC3
REMARK SMILES IDX 4 1 5 2 6 3 7 4 8 5 10 6 12 7 13 8 14 9 15 10 16 11 17 12
REMARK SMILES IDX 18 13 19 14 20 15 21 16 22 17 23 18 2 19 1 20 3 21 11 22
REMARK SMILES IDX 9 24
REMARK H PARENT 11 23 9 25
ROOT
ATOM      1  C   UNL     1      -3.120   0.306   0.000  1.00  0.00     0.001 A 
ATOM      2  C   UNL     1      -2.129   1.432   0.000  1.00  0.00     0.014 A 
ATOM      3  C   UNL     1      -0.658   1.136   0.000  1.00  0.00    -0.011 A 
ATOM      4  C   UNL     1      -0.179  -0.285   0.000  1.00  0.00     0.012 A 
ATOM      5  C   UNL     1      -1.170  -1.411   0.000  1.00  0.00     0.162 A 
ATOM      6  C   UNL     1      -2.640  -1.115   0.000  1.00  0.00     0.161 A 
ATOM      7  C   UNL     1       1.292  -0.581   0.000  1.00  0.00     0.026 C 
ATOM      8  C   UNL     1       1.771  -2.002   0.000  1.00  0.00     0.015 C 
ATOM      9  C   UNL     1       3.242  -2.297   0.000  1.00  0.00     0.002 C 
ATOM     10  C   UNL     1       4.233  -1.171   0.000  1.00  0.00     0.007 C 
ATOM     11  C   UNL     1       3.754   0.250   0.000  1.00  0.00    -0.032 C 
ATOM     12  C   UNL     1       3.789   1.750   0.000  1.00  0.00     0.011 C 
ATOM     13  C   UNL     1       5.237   0.475   0.000  1.00  0.00     0.011 C 
ATOM     14  C   UNL     1       2.283   0.545   0.000  1.00  0.00     0.011 C 
ATOM     15  C   UNL     1       1.804   1.967   0.000  1.00  0.00     0.042 C 
ATOM     16  C   UNL     1       0.333   2.262   0.000  1.00  0.00     0.149 C 
ATOM     17  O   UNL     1       0.644   1.500   0.000  1.00  0.00    -0.373 OA
ATOM     18  C   UNL     1       1.077   0.214   0.000  1.00  0.00     0.173 C 
ENDROOT
BRANCH   1  19
ATOM     19  C   UNL     1      -4.590   0.601   0.000  1.00  0.00     0.017 C 
ATOM     20  C   UNL     1      -5.070   2.023   0.000  1.00  0.00     0.012 C 
ATOM     21  C   UNL     1      -5.582  -0.524   0.000  1.00  0.00     0.012 C 
ENDBRANCH   1  19
BRANCH   6  22
ATOM     22  O   UNL     1      -3.632  -2.241   0.000  1.00  0.00    -0.504 OA
ATOM     23  H   UNL     1       0.000   0.000   0.000  1.00  0.00     0.293 HD
ENDBRANCH   6  22
BRANCH   5  24
ATOM     24  O   UNL     1      -0.690  -2.832   0.000  1.00  0.00    -0.504 OA
ATOM     25  H   UNL     1       0.000   0.000   0.000  1.00  0.00     0.293 HD
ENDBRANCH   5  24
TORSDOF 3
