REMARK SMILES COc1ccc(-c2cc(=O)c3c(OC)cc(OC)c(OC)c3o2)cc1
REMARK SMILES IDX 7 1 8 2 9 3 10 4 11 5 12 6 15 7 16 8 19 9 22 10 23 11 6 12
REMARK SMILES IDX 3 13 4 14 25 15 5 16 24 17 2 18 1 19 20 20 21 21 13 22 14 23
REMARK SMILES IDX 17 24 18 25
REMARK H PARENT
ROOT
ATOM      1  C   UNL     1      -1.215  -0.604   0.000  1.00  0.00     0.138 A 
ATOM      2  C   UNL     1      -0.668  -2.001   0.000  1.00  0.00     0.100 A 
ATOM      3  C   UNL     1       0.814  -2.226   0.000  1.00  0.00     0.197 A 
ATOM      4  O   UNL     1       1.361  -3.623   0.000  1.00  0.00    -0.289 OA
ATOM      5  C   UNL     1       1.751  -1.055   0.000  1.00  0.00     0.111 A 
ATOM      6  C   UNL     1       3.234  -1.280   0.000  1.00  0.00     0.137 A 
ATOM      7  C   UNL     1       4.171  -0.109   0.000  1.00  0.00     0.097 A 
ATOM      8  C   UNL     1       3.625   1.288   0.000  1.00  0.00     0.168 A 
ATOM      9  C   UNL     1       2.142   1.514   0.000  1.00  0.00     0.205 A 
ATOM     10  C   UNL     1       1.205   0.342   0.000  1.00  0.00     0.188 A 
ATOM     11  O   UNL     1      -0.278   0.568   0.000  1.00  0.00    -0.452 OA
ENDROOT
BRANCH   1  12
ATOM     12  C   UNL     1      -2.697  -0.378   0.000  1.00  0.00     0.018 A 
ATOM     13  C   UNL     1      -5.663   0.073   0.000  1.00  0.00     0.118 A 
ATOM     14  C   UNL     1      -4.727   1.245   0.000  1.00  0.00     0.047 A 
ATOM     15  C   UNL     1      -5.117  -1.324   0.000  1.00  0.00     0.047 A 
ATOM     16  C   UNL     1      -3.244   1.019   0.000  1.00  0.00     0.016 A 
ATOM     17  C   UNL     1      -3.634  -1.550   0.000  1.00  0.00     0.016 A 
BRANCH  13  18
ATOM     18  O   UNL     1      -7.146   0.299   0.000  1.00  0.00    -0.497 OA
ATOM     19  C   UNL     1      -7.692   1.696   0.000  1.00  0.00     0.278 C 
ENDBRANCH  13  18
ENDBRANCH   1  12
BRANCH   9  20
ATOM     20  O   UNL     1       1.596   2.911   0.000  1.00  0.00    -0.490 OA
ATOM     21  C   UNL     1       2.533   4.082   0.000  1.00  0.00     0.278 C 
ENDBRANCH   9  20
BRANCH   6  22
ATOM     22  O   UNL     1       3.780  -2.678   0.000  1.00  0.00    -0.496 OA
ATOM     23  C   UNL     1       5.263  -2.903   0.000  1.00  0.00     0.278 C 
ENDBRANCH   6  22
BRANCH   8  24
ATOM     24  O   UNL     1       4.562   2.460   0.000  1.00  0.00    -0.493 OA
ATOM     25  C   UNL     1       6.045   2.234   0.000  1.00  0.00     0.278 C 
ENDBRANCH   8  24
TORSDOF 5
