REMARK SMILES C[C@@H]1Cc2c(O)ccc(O)c2C(=O)O1
REMARK SMILES IDX 1 1 2 2 3 3 4 4 5 5 7 6 8 7 9 8 11 9 12 10 13 11 14 12 6 13
REMARK SMILES IDX 10 15
REMARK H PARENT 6 14 10 16
ROOT
ATOM      1  C   UNL     1       3.937  -0.929   0.000  1.00  0.00     0.053 C 
ATOM      2  C   UNL     1       2.526  -0.419   0.000  1.00  0.00     0.178 C 
ATOM      3  C   UNL     1       1.379  -1.386   0.000  1.00  0.00     0.085 C 
ATOM      4  C   UNL     1      -0.032  -0.876   0.000  1.00  0.00     0.016 A 
ATOM      5  C   UNL     1      -1.179  -1.843   0.000  1.00  0.00     0.120 A 
ATOM      6  C   UNL     1      -2.589  -1.334   0.000  1.00  0.00     0.050 A 
ATOM      7  C   UNL     1      -2.853   0.143   0.000  1.00  0.00     0.051 A 
ATOM      8  C   UNL     1      -1.707   1.110   0.000  1.00  0.00     0.130 A 
ATOM      9  C   UNL     1      -0.296   0.600   0.000  1.00  0.00     0.108 A 
ATOM     10  C   UNL     1       0.851   1.567   0.000  1.00  0.00     0.342 C 
ATOM     11  O   UNL     1       0.587   3.044   0.000  1.00  0.00    -0.246 OA
ATOM     12  O   UNL     1       2.262   1.058   0.000  1.00  0.00    -0.459 OA
ENDROOT
BRANCH   5  13
ATOM     13  O   UNL     1      -0.914  -3.320   0.000  1.00  0.00    -0.508 OA
ATOM     14  H   UNL     1       0.000   0.000   0.000  1.00  0.00     0.293 HD
ENDBRANCH   5  13
BRANCH   8  15
ATOM     15  O   UNL     1      -1.971   2.586   0.000  1.00  0.00    -0.507 OA
ATOM     16  H   UNL     1       0.000   0.000   0.000  1.00  0.00     0.293 HD
ENDBRANCH   8  15
TORSDOF 2
