REMARK SMILES COc1ccc(-c2oc3cc(OC)c(OC)c(O)c3c(=O)c2OC)cc1
REMARK SMILES IDX 7 1 22 2 20 3 21 4 19 5 17 6 14 7 11 8 10 9 9 10 8 11 6 12
REMARK SMILES IDX 3 13 4 14 26 15 5 16 25 17 2 18 1 19 23 20 24 21 18 22 12 24
REMARK SMILES IDX 13 25 15 26 16 27
REMARK H PARENT 18 23
ROOT
ATOM      1  C   UNL     1      -1.129  -0.129   0.000  1.00  0.00     0.180 A 
ATOM      2  C   UNL     1      -0.586  -1.527   0.000  1.00  0.00     0.210 A 
ATOM      3  C   UNL     1       0.896  -1.756   0.000  1.00  0.00     0.239 A 
ATOM      4  O   UNL     1       1.439  -3.155   0.000  1.00  0.00    -0.285 OA
ATOM      5  C   UNL     1       1.836  -0.587   0.000  1.00  0.00     0.115 A 
ATOM      6  C   UNL     1       3.318  -0.816   0.000  1.00  0.00     0.177 A 
ATOM      7  C   UNL     1       4.258   0.353   0.000  1.00  0.00     0.204 A 
ATOM      8  C   UNL     1       3.715   1.752   0.000  1.00  0.00     0.168 A 
ATOM      9  C   UNL     1       2.232   1.981   0.000  1.00  0.00     0.098 A 
ATOM     10  C   UNL     1       1.293   0.811   0.000  1.00  0.00     0.146 A 
ATOM     11  O   UNL     1      -0.190   1.040   0.000  1.00  0.00    -0.452 OA
ENDROOT
BRANCH   1  12
ATOM     12  C   UNL     1      -2.611   0.100   0.000  1.00  0.00     0.021 A 
ATOM     13  C   UNL     1      -5.576   0.558   0.000  1.00  0.00     0.118 A 
ATOM     14  C   UNL     1      -4.637   1.727   0.000  1.00  0.00     0.047 A 
ATOM     15  C   UNL     1      -5.033  -0.840   0.000  1.00  0.00     0.047 A 
ATOM     16  C   UNL     1      -3.154   1.498   0.000  1.00  0.00     0.016 A 
ATOM     17  C   UNL     1      -3.551  -1.069   0.000  1.00  0.00     0.016 A 
BRANCH  13  18
ATOM     18  O   UNL     1      -7.059   0.787   0.000  1.00  0.00    -0.497 OA
ATOM     19  C   UNL     1      -7.602   2.185   0.000  1.00  0.00     0.278 C 
ENDBRANCH  13  18
ENDBRANCH   1  12
BRANCH   2  20
ATOM     20  O   UNL     1      -1.526  -2.697   0.000  1.00  0.00    -0.490 OA
ATOM     21  C   UNL     1      -3.008  -2.468   0.000  1.00  0.00     0.278 C 
ENDBRANCH   2  20
BRANCH   6  22
ATOM     22  O   UNL     1       3.861  -2.214   0.000  1.00  0.00    -0.504 OA
ATOM     23  H   UNL     1       0.000   0.000   0.000  1.00  0.00     0.293 HD
ENDBRANCH   6  22
BRANCH   8  24
ATOM     24  O   UNL     1       4.654   2.921   0.000  1.00  0.00    -0.493 OA
ATOM     25  C   UNL     1       6.137   2.692   0.000  1.00  0.00     0.278 C 
ENDBRANCH   8  24
BRANCH   7  26
ATOM     26  O   UNL     1       5.740   0.125   0.000  1.00  0.00    -0.490 OA
ATOM     27  C   UNL     1       6.283  -1.274   0.000  1.00  0.00     0.278 C 
ENDBRANCH   7  26
TORSDOF 6
