REMARK SMILES COc1ccc(-c2coc3cc(OCC=C(C)C)ccc3c2=O)cc1OC(C)=O
REMARK SMILES IDX 7 1 8 2 9 3 10 4 11 5 12 6 19 7 20 8 21 9 22 10 23 11 6 12
REMARK SMILES IDX 3 13 4 14 25 15 5 16 24 17 2 18 1 19 26 20 27 21 28 22 29 23
REMARK SMILES IDX 13 24 14 25 15 26 16 27 17 28 18 29
REMARK H PARENT
ROOT
ATOM      1  C   UNL     1      -1.139   0.394   0.000  1.00  0.00     0.065 A 
ATOM      2  C   UNL     1      -0.482  -0.954   0.000  1.00  0.00     0.208 A 
ATOM      3  O   UNL     1       1.015  -1.059   0.000  1.00  0.00    -0.463 OA
ATOM      4  C   UNL     1       1.854   0.185   0.000  1.00  0.00     0.141 A 
ATOM      5  C   UNL     1       3.350   0.080   0.000  1.00  0.00     0.094 A 
ATOM      6  C   UNL     1       4.189   1.323   0.000  1.00  0.00     0.123 A 
ATOM      7  C   UNL     1       3.531   2.672   0.000  1.00  0.00     0.047 A 
ATOM      8  C   UNL     1       2.035   2.776   0.000  1.00  0.00     0.020 A 
ATOM      9  C   UNL     1       1.196   1.533   0.000  1.00  0.00     0.066 A 
ATOM     10  C   UNL     1      -0.300   1.638   0.000  1.00  0.00     0.200 A 
ATOM     11  O   UNL     1      -0.958   2.986   0.000  1.00  0.00    -0.288 OA
ENDROOT
BRANCH   1  12
ATOM     12  C   UNL     1      -2.635   0.499   0.000  1.00  0.00    -0.007 A 
ATOM     13  C   UNL     1      -5.628   0.708   0.000  1.00  0.00     0.161 A 
ATOM     14  C   UNL     1      -4.789   1.952   0.000  1.00  0.00     0.051 A 
ATOM     15  C   UNL     1      -4.971  -0.640   0.000  1.00  0.00     0.173 A 
ATOM     16  C   UNL     1      -3.293   1.847   0.000  1.00  0.00     0.013 A 
ATOM     17  C   UNL     1      -3.474  -0.745   0.000  1.00  0.00     0.060 A 
BRANCH  13  18
ATOM     18  O   UNL     1      -7.124   0.813   0.000  1.00  0.00    -0.493 OA
ATOM     19  C   UNL     1      -7.782   2.161   0.000  1.00  0.00     0.278 C 
ENDBRANCH  13  18
BRANCH  15  20
ATOM     20  O   UNL     1      -5.809  -1.883   0.000  1.00  0.00    -0.423 OA
BRANCH  20  21
ATOM     21  C   UNL     1      -5.152  -3.232   0.000  1.00  0.00     0.308 C 
ATOM     22  C   UNL     1      -5.991  -4.475   0.000  1.00  0.00     0.139 C 
ATOM     23  O   UNL     1      -3.656  -3.336   0.000  1.00  0.00    -0.252 OA
ENDBRANCH  20  21
ENDBRANCH  15  20
ENDBRANCH   1  12
BRANCH   6  24
ATOM     24  O   UNL     1       5.685   1.219   0.000  1.00  0.00    -0.489 OA
BRANCH  24  25
ATOM     25  C   UNL     1       6.343  -0.130   0.000  1.00  0.00     0.257 C 
BRANCH  25  26
ATOM     26  C   UNL     1       7.839  -0.234   0.000  1.00  0.00     0.012 C 
BRANCH  26  27
ATOM     27  C   UNL     1       8.496  -1.583   0.000  1.00  0.00    -0.077 C 
ATOM     28  C   UNL     1       9.993  -1.687   0.000  1.00  0.00     0.039 C 
ATOM     29  C   UNL     1       7.658  -2.826   0.000  1.00  0.00     0.039 C 
ENDBRANCH  26  27
ENDBRANCH  25  26
ENDBRANCH  24  25
ENDBRANCH   6  24
TORSDOF 8
