REMARK SMILES CCCCCC=CCCC=CC=CC(=O)NCC(C)C
REMARK SMILES IDX 9 1 8 2 7 3 6 4 5 5 4 6 3 7 2 8 1 9 10 10 11 11 12 12 13 13
REMARK SMILES IDX 14 14 16 15 15 16 17 18 18 19 19 20 20 21
REMARK H PARENT 16 17
ROOT
ATOM      1  C   UNL     1       1.428   0.380   0.000  1.00  0.00     0.031 C 
ENDROOT
BRANCH   1   2
ATOM      2  C   UNL     1       2.729  -0.366   0.000  1.00  0.00     0.031 C 
BRANCH   2   3
ATOM      3  C   UNL     1       4.026   0.388   0.000  1.00  0.00    -0.031 C 
BRANCH   3   4
ATOM      4  C   UNL     1       5.327  -0.358   0.000  1.00  0.00    -0.031 C 
BRANCH   4   5
ATOM      5  C   UNL     1       6.624   0.396   0.000  1.00  0.00     0.027 C 
BRANCH   5   6
ATOM      6  C   UNL     1       7.925  -0.350   0.000  1.00  0.00     0.004 C 
BRANCH   6   7
ATOM      7  C   UNL     1       9.222   0.404   0.000  1.00  0.00     0.000 C 
BRANCH   7   8
ATOM      8  C   UNL     1      10.523  -0.342   0.000  1.00  0.00    -0.003 C 
ATOM      9  C   UNL     1      11.820   0.412   0.000  1.00  0.00     0.004 C 
ENDBRANCH   7   8
ENDBRANCH   6   7
ENDBRANCH   5   6
ENDBRANCH   4   5
ENDBRANCH   3   4
ENDBRANCH   2   3
ENDBRANCH   1   2
BRANCH   1  10
ATOM     10  C   UNL     1       0.131  -0.375   0.000  1.00  0.00    -0.027 C 
BRANCH  10  11
ATOM     11  C   UNL     1      -1.170   0.371   0.000  1.00  0.00    -0.004 C 
BRANCH  11  12
ATOM     12  C   UNL     1      -2.467  -0.383   0.000  1.00  0.00     0.005 C 
BRANCH  12  13
ATOM     13  C   UNL     1      -3.768   0.363   0.000  1.00  0.00     0.071 C 
BRANCH  13  14
ATOM     14  C   UNL     1      -5.065  -0.391   0.000  1.00  0.00     0.243 C 
ATOM     15  N   UNL     1      -6.366   0.355   0.000  1.00  0.00    -0.352 N 
ATOM     16  O   UNL     1      -5.060  -1.891   0.000  1.00  0.00    -0.270 OA
ATOM     17  H   UNL     1       0.000   0.000   0.000  1.00  0.00     0.163 HD
BRANCH  15  18
ATOM     18  C   UNL     1      -7.663  -0.399   0.000  1.00  0.00     0.119 C 
BRANCH  18  19
ATOM     19  C   UNL     1      -8.964   0.347   0.000  1.00  0.00     0.002 C 
ATOM     20  C   UNL     1     -10.261  -0.407   0.000  1.00  0.00     0.009 C 
ATOM     21  C   UNL     1      -8.969   1.847   0.000  1.00  0.00     0.009 C 
ENDBRANCH  18  19
ENDBRANCH  15  18
ENDBRANCH  13  14
ENDBRANCH  12  13
ENDBRANCH  11  12
ENDBRANCH  10  11
ENDBRANCH   1  10
TORSDOF 14
