REMARK SMILES COC(=O)[C@@H]1c2ccoc2C[C@H]2[C@H]1[C@@H](O)[C@H](OC(C)=O)[C@H]1C(C)(C)CCC[C@]21C
REMARK SMILES IDX 5 1 6 2 10 3 11 4 12 5 13 6 14 7 16 8 21 9 22 10 23 11 24 12
REMARK SMILES IDX 25 13 26 14 27 15 28 16 29 17 9 18 8 19 7 20 3 21 4 22 2 23
REMARK SMILES IDX 1 24 15 25 17 27 18 28 19 29 20 30
REMARK H PARENT 15 26
ROOT
ATOM      1  C   UNL     1      -2.193   0.544   0.000  1.00  0.00     0.139 C 
ATOM      2  C   UNL     1      -3.317  -0.449   0.000  1.00  0.00     0.008 A 
ATOM      3  C   UNL     1      -3.018  -1.919   0.000  1.00  0.00     0.108 A 
ATOM      4  C   UNL     1      -1.596  -2.396   0.000  1.00  0.00     0.080 C 
ATOM      5  C   UNL     1      -0.472  -1.403   0.000  1.00  0.00     0.010 C 
ATOM      6  C   UNL     1      -0.770   0.067   0.000  1.00  0.00     0.044 C 
ATOM      7  C   UNL     1       0.353   1.060   0.000  1.00  0.00     0.160 C 
ATOM      8  C   UNL     1       1.776   0.584   0.000  1.00  0.00     0.209 C 
ATOM      9  C   UNL     1       2.074  -0.886   0.000  1.00  0.00     0.045 C 
ATOM     10  C   UNL     1       3.496  -1.363   0.000  1.00  0.00    -0.028 C 
ATOM     11  C   UNL     1       4.996  -1.325   0.000  1.00  0.00     0.011 C 
ATOM     12  C   UNL     1       3.719   0.120   0.000  1.00  0.00     0.011 C 
ATOM     13  C   UNL     1       3.794  -2.833   0.000  1.00  0.00     0.007 C 
ATOM     14  C   UNL     1       2.670  -3.826   0.000  1.00  0.00     0.001 C 
ATOM     15  C   UNL     1       1.248  -3.350   0.000  1.00  0.00     0.007 C 
ATOM     16  C   UNL     1       0.950  -1.880   0.000  1.00  0.00    -0.022 C 
ATOM     17  C   UNL     1      -0.174  -2.873   0.000  1.00  0.00     0.012 C 
ATOM     18  O   UNL     1      -4.324  -2.657   0.000  1.00  0.00    -0.469 OA
ATOM     19  C   UNL     1      -5.430  -1.643   0.000  1.00  0.00     0.195 A 
ATOM     20  C   UNL     1      -4.807  -0.279   0.000  1.00  0.00     0.047 A 
ENDROOT
BRANCH   1  21
ATOM     21  C   UNL     1      -2.491   2.014   0.000  1.00  0.00     0.313 C 
ATOM     22  O   UNL     1      -3.913   2.491   0.000  1.00  0.00    -0.252 OA
BRANCH  21  23
ATOM     23  O   UNL     1      -1.367   3.007   0.000  1.00  0.00    -0.469 OA
ATOM     24  C   UNL     1      -1.665   4.477   0.000  1.00  0.00     0.282 C 
ENDBRANCH  21  23
ENDBRANCH   1  21
BRANCH   7  25
ATOM     25  O   UNL     1       0.055   2.530   0.000  1.00  0.00    -0.389 OA
ATOM     26  H   UNL     1       0.000   0.000   0.000  1.00  0.00     0.211 HD
ENDBRANCH   7  25
BRANCH   8  27
ATOM     27  O   UNL     1       2.900   1.577   0.000  1.00  0.00    -0.459 OA
BRANCH  27  28
ATOM     28  C   UNL     1       2.602   3.047   0.000  1.00  0.00     0.303 C 
ATOM     29  C   UNL     1       3.726   4.040   0.000  1.00  0.00     0.139 C 
ATOM     30  O   UNL     1       1.179   3.524   0.000  1.00  0.00    -0.253 OA
ENDBRANCH  27  28
ENDBRANCH   8  27
TORSDOF 5
