REMARK SMILES COC(=O)c1cc(C(=O)C=C(C)C)ccc1OC
REMARK SMILES IDX 5 1 6 2 7 3 14 4 15 5 16 6 3 7 4 8 2 9 1 10 17 11 18 12 8 13
REMARK SMILES IDX 9 14 10 15 11 16 12 17 13 18
REMARK H PARENT
ROOT
ATOM      1  C   UNL     1       1.727  -0.160   0.000  1.00  0.00     0.102 A 
ATOM      2  C   UNL     1       0.336  -0.721   0.000  1.00  0.00     0.031 A 
ATOM      3  C   UNL     1      -0.846   0.204   0.000  1.00  0.00     0.023 A 
ATOM      4  C   UNL     1      -0.636   1.689   0.000  1.00  0.00     0.016 A 
ATOM      5  C   UNL     1       0.755   2.250   0.000  1.00  0.00     0.048 A 
ATOM      6  C   UNL     1       1.937   1.325   0.000  1.00  0.00     0.133 A 
ENDROOT
BRANCH   1   7
ATOM      7  C   UNL     1       2.908  -1.084   0.000  1.00  0.00     0.341 C 
ATOM      8  O   UNL     1       4.299  -0.523   0.000  1.00  0.00    -0.246 OA
BRANCH   7   9
ATOM      9  O   UNL     1       2.698  -2.570   0.000  1.00  0.00    -0.465 OA
ATOM     10  C   UNL     1       3.879  -3.494   0.000  1.00  0.00     0.282 C 
ENDBRANCH   7   9
ENDBRANCH   1   7
BRANCH   6  11
ATOM     11  O   UNL     1       3.328   1.886   0.000  1.00  0.00    -0.496 OA
ATOM     12  C   UNL     1       3.538   3.372   0.000  1.00  0.00     0.278 C 
ENDBRANCH   6  11
BRANCH   3  13
ATOM     13  C   UNL     1      -2.237  -0.357   0.000  1.00  0.00     0.185 C 
ATOM     14  O   UNL     1      -2.447  -1.842   0.000  1.00  0.00    -0.289 OA
BRANCH  13  15
ATOM     15  C   UNL     1      -3.418   0.567   0.000  1.00  0.00     0.051 C 
BRANCH  15  16
ATOM     16  C   UNL     1      -4.810   0.006   0.000  1.00  0.00    -0.073 C 
ATOM     17  C   UNL     1      -5.991   0.931   0.000  1.00  0.00     0.039 C 
ATOM     18  C   UNL     1      -5.019  -1.479   0.000  1.00  0.00     0.039 C 
ENDBRANCH  15  16
ENDBRANCH  13  15
ENDBRANCH   3  13
TORSDOF 6
