REMARK SMILES COC(=O)c1cc(CCC(C)C)c2c(c1)CC[C@](C)(CCCC(C)C)O2
REMARK SMILES IDX 5 1 6 2 7 3 13 4 26 5 18 6 19 7 17 8 16 9 14 10 15 11 3 12
REMARK SMILES IDX 4 13 2 14 1 15 8 16 9 17 10 18 11 19 12 20 20 21 21 22 22 23
REMARK SMILES IDX 23 24 24 25 25 26
REMARK H PARENT
ROOT
ATOM      1  C   UNL     1      -3.191  -0.378   0.000  1.00  0.00     0.060 A 
ATOM      2  C   UNL     1      -1.938  -1.202   0.000  1.00  0.00     0.023 A 
ATOM      3  C   UNL     1      -0.597  -0.529   0.000  1.00  0.00    -0.005 A 
ATOM      4  C   UNL     1      -0.510   0.969   0.000  1.00  0.00     0.126 A 
ATOM      5  O   UNL     1       0.830   1.642   0.000  1.00  0.00    -0.487 OA
ATOM      6  C   UNL     1       0.917   3.140   0.000  1.00  0.00     0.107 C 
ATOM      7  C   UNL     1       1.510   4.517   0.000  1.00  0.00     0.056 C 
ATOM      8  C   UNL     1      -0.337   3.964   0.000  1.00  0.00     0.053 C 
ATOM      9  C   UNL     1      -1.677   3.290   0.000  1.00  0.00     0.043 C 
ATOM     10  C   UNL     1      -1.764   1.793   0.000  1.00  0.00    -0.005 A 
ATOM     11  C   UNL     1      -3.104   1.119   0.000  1.00  0.00     0.023 A 
ENDROOT
BRANCH   1  12
ATOM     12  C   UNL     1      -4.531  -1.052   0.000  1.00  0.00     0.337 C 
ATOM     13  O   UNL     1      -4.618  -2.549   0.000  1.00  0.00    -0.246 OA
BRANCH  12  14
ATOM     14  O   UNL     1      -5.785  -0.228   0.000  1.00  0.00    -0.465 OA
ATOM     15  C   UNL     1      -7.125  -0.901   0.000  1.00  0.00     0.282 C 
ENDBRANCH  12  14
ENDBRANCH   1  12
BRANCH   3  16
ATOM     16  C   UNL     1       0.656  -1.353   0.000  1.00  0.00     0.040 C 
BRANCH  16  17
ATOM     17  C   UNL     1       0.569  -2.850   0.000  1.00  0.00     0.008 C 
BRANCH  17  18
ATOM     18  C   UNL     1       1.823  -3.674   0.000  1.00  0.00    -0.017 C 
ATOM     19  C   UNL     1       1.736  -5.171   0.000  1.00  0.00     0.007 C 
ATOM     20  C   UNL     1       3.163  -3.001   0.000  1.00  0.00     0.007 C 
ENDBRANCH  17  18
ENDBRANCH  16  17
ENDBRANCH   3  16
BRANCH   6  21
ATOM     21  C   UNL     1       2.376   2.794   0.000  1.00  0.00     0.048 C 
BRANCH  21  22
ATOM     22  C   UNL     1       2.807   1.357   0.000  1.00  0.00     0.004 C 
BRANCH  22  23
ATOM     23  C   UNL     1       4.267   1.012   0.000  1.00  0.00     0.003 C 
BRANCH  23  24
ATOM     24  C   UNL     1       4.697  -0.425   0.000  1.00  0.00    -0.017 C 
ATOM     25  C   UNL     1       6.157  -0.771   0.000  1.00  0.00     0.007 C 
ATOM     26  C   UNL     1       3.668  -1.516   0.000  1.00  0.00     0.007 C 
ENDBRANCH  23  24
ENDBRANCH  22  23
ENDBRANCH  21  22
ENDBRANCH   6  21
TORSDOF 9
