REMARK SMILES COC(=O)C1=CO[C@@H](O[C@@H]2O[C@H](CO)[C@@H](O)[C@H](O)[C@H]2O)[C@@H]2[C@@H](C)[C@@H](O)C[C@H]12
REMARK SMILES IDX 9 1 8 2 5 3 6 4 27 5 7 6 26 7 21 8 24 9 22 10 23 11 3 12
REMARK SMILES IDX 4 13 2 14 1 15 25 16 10 18 11 19 19 20 12 21 17 22 15 23
REMARK SMILES IDX 20 24 13 26 14 27 18 29 16 31
REMARK H PARENT 25 17 20 25 14 28 18 30 16 32
ROOT
ATOM      1  O   UNL     1      -0.935   1.209   0.000  1.00  0.00    -0.310 OA
ENDROOT
BRANCH   1   2
ATOM      2  C   UNL     1       0.379   0.486   0.000  1.00  0.00     0.313 C 
ATOM      3  C   UNL     1       3.007  -0.960   0.000  1.00  0.00     0.075 C 
ATOM      4  C   UNL     1       1.724  -1.737   0.000  1.00  0.00     0.202 C 
ATOM      5  C   UNL     1       2.976   0.539   0.000  1.00  0.00     0.042 C 
ATOM      6  O   UNL     1       0.410  -1.014   0.000  1.00  0.00    -0.472 OA
ATOM      7  C   UNL     1       4.070   1.566   0.000  1.00  0.00     0.041 C 
ATOM      8  C   UNL     1       1.662   1.262   0.000  1.00  0.00     0.072 C 
ATOM      9  C   UNL     1       3.432   2.923   0.000  1.00  0.00     0.118 C 
ATOM     10  C   UNL     1       1.944   2.736   0.000  1.00  0.00     0.025 C 
ATOM     11  C   UNL     1       0.917   3.829   0.000  1.00  0.00     0.011 C 
BRANCH   3  12
ATOM     12  C   UNL     1       4.322  -1.683   0.000  1.00  0.00     0.337 C 
ATOM     13  O   UNL     1       5.605  -0.907   0.000  1.00  0.00    -0.246 OA
BRANCH  12  14
ATOM     14  O   UNL     1       4.353  -3.183   0.000  1.00  0.00    -0.466 OA
ATOM     15  C   UNL     1       5.667  -3.906   0.000  1.00  0.00     0.282 C 
ENDBRANCH  12  14
ENDBRANCH   3  12
BRANCH   9  16
ATOM     16  O   UNL     1       4.155   4.237   0.000  1.00  0.00    -0.393 OA
ATOM     17  H   UNL     1       0.000   0.000   0.000  1.00  0.00     0.210 HD
ENDBRANCH   9  16
ENDBRANCH   1   2
BRANCH   1  18
ATOM     18  C   UNL     1      -2.219   0.432   0.000  1.00  0.00     0.286 C 
ATOM     19  O   UNL     1      -3.533   1.155   0.000  1.00  0.00    -0.341 OA
ATOM     20  C   UNL     1      -2.188  -1.068   0.000  1.00  0.00     0.202 C 
ATOM     21  C   UNL     1      -4.816   0.378   0.000  1.00  0.00     0.178 C 
ATOM     22  C   UNL     1      -3.471  -1.844   0.000  1.00  0.00     0.179 C 
ATOM     23  C   UNL     1      -4.785  -1.121   0.000  1.00  0.00     0.177 C 
BRANCH  20  24
ATOM     24  O   UNL     1      -0.874  -1.791   0.000  1.00  0.00    -0.385 OA
ATOM     25  H   UNL     1       0.000   0.000   0.000  1.00  0.00     0.211 HD
ENDBRANCH  20  24
BRANCH  21  26
ATOM     26  C   UNL     1      -6.130   1.101   0.000  1.00  0.00     0.191 C 
BRANCH  26  27
ATOM     27  O   UNL     1      -6.161   2.601   0.000  1.00  0.00    -0.394 OA
ATOM     28  H   UNL     1       0.000   0.000   0.000  1.00  0.00     0.210 HD
ENDBRANCH  26  27
ENDBRANCH  21  26
BRANCH  22  29
ATOM     29  O   UNL     1      -3.440  -3.344   0.000  1.00  0.00    -0.387 OA
ATOM     30  H   UNL     1       0.000   0.000   0.000  1.00  0.00     0.211 HD
ENDBRANCH  22  29
BRANCH  23  31
ATOM     31  O   UNL     1      -6.069  -1.898   0.000  1.00  0.00    -0.387 OA
ATOM     32  H   UNL     1       0.000   0.000   0.000  1.00  0.00     0.211 HD
ENDBRANCH  23  31
ENDBRANCH   1  18
TORSDOF 10
