REMARK SMILES CC1(C)Oc2cc3oc(=O)ccc3cc2[C@@H](O)[C@@H]1O
REMARK SMILES IDX 1 1 2 2 3 3 4 4 5 5 6 6 7 7 13 8 12 9 11 10 9 11 10 12 8 13
REMARK SMILES IDX 14 14 15 15 16 16 18 17 19 18 17 20
REMARK H PARENT 19 19 17 21
ROOT
ATOM      1  C   UNL     1      -4.677   0.831   0.000  1.00  0.00     0.059 C 
ATOM      2  C   UNL     1      -3.185   0.989   0.000  1.00  0.00     0.132 C 
ATOM      3  C   UNL     1      -3.600   2.431   0.000  1.00  0.00     0.059 C 
ATOM      4  O   UNL     1      -1.837   1.649   0.000  1.00  0.00    -0.485 OA
ATOM      5  C   UNL     1      -0.593   0.811   0.000  1.00  0.00     0.129 A 
ATOM      6  C   UNL     1       0.754   1.470   0.000  1.00  0.00     0.094 A 
ATOM      7  C   UNL     1       1.999   0.633   0.000  1.00  0.00     0.142 A 
ATOM      8  C   UNL     1       1.896  -0.864   0.000  1.00  0.00     0.018 A 
ATOM      9  C   UNL     1       3.140  -1.701   0.000  1.00  0.00     0.019 A 
ATOM     10  C   UNL     1       4.488  -1.042   0.000  1.00  0.00     0.094 A 
ATOM     11  C   UNL     1       4.591   0.454   0.000  1.00  0.00     0.336 A 
ATOM     12  O   UNL     1       5.938   1.113   0.000  1.00  0.00    -0.246 OA
ATOM     13  O   UNL     1       3.346   1.292   0.000  1.00  0.00    -0.423 OA
ATOM     14  C   UNL     1       0.548  -1.523   0.000  1.00  0.00     0.022 A 
ATOM     15  C   UNL     1      -0.696  -0.685   0.000  1.00  0.00     0.026 A 
ATOM     16  C   UNL     1      -2.043  -1.344   0.000  1.00  0.00     0.181 C 
ATOM     17  C   UNL     1      -3.288  -0.507   0.000  1.00  0.00     0.191 C 
ENDROOT
BRANCH  17  18
ATOM     18  O   UNL     1      -4.635  -1.166   0.000  1.00  0.00    -0.386 OA
ATOM     19  H   UNL     1       0.000   0.000   0.000  1.00  0.00     0.211 HD
ENDBRANCH  17  18
BRANCH  16  20
ATOM     20  O   UNL     1      -2.146  -2.841   0.000  1.00  0.00    -0.385 OA
ATOM     21  H   UNL     1       0.000   0.000   0.000  1.00  0.00     0.211 HD
ENDBRANCH  16  20
TORSDOF 2
