REMARK SMILES C=C1CO[C@@H](c2ccc3[nH]ccc3c2)[C@@H]1CC=C(C)C
REMARK SMILES IDX 16 1 15 2 2 3 3 4 4 5 5 6 1 7 6 8 7 9 14 10 8 11 13 12 9 13
REMARK SMILES IDX 12 14 10 15 11 16 17 18 18 19 19 20 20 21
REMARK H PARENT 10 17
ROOT
ATOM      1  C   UNL     1       2.125  -0.457   0.000  1.00  0.00     0.038 C 
ENDROOT
BRANCH   1   2
ATOM      2  C   UNL     1       1.663   0.970   0.000  1.00  0.00     0.054 C 
ATOM      3  C   UNL     1       2.547   2.182   0.000  1.00  0.00    -0.046 C 
ATOM      4  C   UNL     1       1.667   3.397   0.000  1.00  0.00     0.192 C 
ATOM      5  O   UNL     1       0.240   2.936   0.000  1.00  0.00    -0.369 OA
ATOM      6  C   UNL     1       0.238   1.436   0.000  1.00  0.00     0.156 C 
ATOM      7  C   UNL     1       4.047   2.180   0.000  1.00  0.00     0.010 C 
BRANCH   6   8
ATOM      8  C   UNL     1      -0.977   0.556   0.000  1.00  0.00    -0.018 A 
ATOM      9  C   UNL     1      -0.823  -0.936   0.000  1.00  0.00     0.008 A 
ATOM     10  C   UNL     1      -2.347   1.168   0.000  1.00  0.00     0.016 A 
ATOM     11  C   UNL     1      -2.038  -1.816   0.000  1.00  0.00     0.027 A 
ATOM     12  C   UNL     1      -3.562   0.288   0.000  1.00  0.00    -0.000 A 
ATOM     13  C   UNL     1      -3.407  -1.204   0.000  1.00  0.00     0.045 A 
ATOM     14  C   UNL     1      -5.028   0.602   0.000  1.00  0.00     0.028 A 
ATOM     15  N   UNL     1      -4.778  -1.812   0.000  1.00  0.00    -0.361 N 
ATOM     16  C   UNL     1      -5.780  -0.696   0.000  1.00  0.00     0.083 A 
ATOM     17  H   UNL     1       0.000   0.000   0.000  1.00  0.00     0.166 HD
ENDBRANCH   6   8
ENDBRANCH   1   2
BRANCH   1  18
ATOM     18  C   UNL     1       3.592  -0.771   0.000  1.00  0.00    -0.028 C 
BRANCH  18  19
ATOM     19  C   UNL     1       4.053  -2.199   0.000  1.00  0.00    -0.080 C 
ATOM     20  C   UNL     1       5.520  -2.513   0.000  1.00  0.00     0.039 C 
ATOM     21  C   UNL     1       3.048  -3.312   0.000  1.00  0.00     0.039 C 
ENDBRANCH  18  19
ENDBRANCH   1  18
TORSDOF 4
