REMARK SMILES COc1cc(C=Cc2ccccc2)cc(OC)c1CC=C(C)C
REMARK SMILES IDX 3 1 4 2 5 3 14 4 15 5 18 6 2 7 1 8 19 9 20 10 21 11 22 12
REMARK SMILES IDX 23 13 6 14 7 15 8 16 9 17 13 18 10 19 12 20 11 21 16 22
REMARK SMILES IDX 17 23
REMARK H PARENT
ROOT
ATOM      1  C   UNL     1       1.849  -1.089   0.000  1.00  0.00     0.126 A 
ATOM      2  C   UNL     1       0.386  -1.418   0.000  1.00  0.00     0.055 A 
ATOM      3  C   UNL     1      -0.631  -0.316   0.000  1.00  0.00    -0.018 A 
ATOM      4  C   UNL     1      -0.184   1.116   0.000  1.00  0.00     0.055 A 
ATOM      5  C   UNL     1       1.279   1.446   0.000  1.00  0.00     0.126 A 
ATOM      6  C   UNL     1       2.296   0.343   0.000  1.00  0.00     0.040 A 
ENDROOT
BRANCH   1   7
ATOM      7  O   UNL     1       2.866  -2.192   0.000  1.00  0.00    -0.496 OA
ATOM      8  C   UNL     1       2.420  -3.624   0.000  1.00  0.00     0.278 C 
ENDBRANCH   1   7
BRANCH   6   9
ATOM      9  C   UNL     1       3.759   0.672   0.000  1.00  0.00     0.070 C 
BRANCH   9  10
ATOM     10  C   UNL     1       4.776  -0.431   0.000  1.00  0.00    -0.023 C 
BRANCH  10  11
ATOM     11  C   UNL     1       6.240  -0.101   0.000  1.00  0.00    -0.080 C 
ATOM     12  C   UNL     1       7.256  -1.204   0.000  1.00  0.00     0.039 C 
ATOM     13  C   UNL     1       6.686   1.331   0.000  1.00  0.00     0.039 C 
ENDBRANCH  10  11
ENDBRANCH   9  10
ENDBRANCH   6   9
BRANCH   3  14
ATOM     14  C   UNL     1      -2.094  -0.645   0.000  1.00  0.00     0.009 C 
BRANCH  14  15
ATOM     15  C   UNL     1      -3.111   0.458   0.000  1.00  0.00     0.009 C 
BRANCH  15  16
ATOM     16  C   UNL     1      -4.575   0.129   0.000  1.00  0.00    -0.026 A 
ATOM     17  C   UNL     1      -5.591   1.231   0.000  1.00  0.00     0.008 A 
ATOM     18  C   UNL     1      -5.021  -1.303   0.000  1.00  0.00     0.008 A 
ATOM     19  C   UNL     1      -7.055   0.902   0.000  1.00  0.00     0.001 A 
ATOM     20  C   UNL     1      -6.485  -1.633   0.000  1.00  0.00     0.001 A 
ATOM     21  C   UNL     1      -7.501  -0.530   0.000  1.00  0.00     0.000 A 
ENDBRANCH  15  16
ENDBRANCH  14  15
ENDBRANCH   3  14
BRANCH   5  22
ATOM     22  O   UNL     1       1.726   2.878   0.000  1.00  0.00    -0.496 OA
ATOM     23  C   UNL     1       0.709   3.980   0.000  1.00  0.00     0.278 C 
ENDBRANCH   5  22
TORSDOF 8
