REMARK SMILES C=C(C)c1cc2c(C)ccc(C)c2c2nc3ccccc3nc12
REMARK SMILES IDX 4 1 5 2 6 3 7 4 8 5 9 6 10 7 11 8 12 9 13 10 14 11 15 12
REMARK SMILES IDX 16 13 17 14 18 15 19 16 20 17 21 18 22 19 23 20 2 21 1 22
REMARK SMILES IDX 3 23
REMARK H PARENT
ROOT
ATOM      1  C   UNL     1      -0.783   1.944   0.000  1.00  0.00     0.005 A 
ATOM      2  C   UNL     1      -2.214   1.494   0.000  1.00  0.00     0.019 A 
ATOM      3  C   UNL     1      -2.539   0.029   0.000  1.00  0.00    -0.012 A 
ATOM      4  C   UNL     1      -3.970  -0.421   0.000  1.00  0.00    -0.043 A 
ATOM      5  C   UNL     1      -5.075   0.593   0.000  1.00  0.00     0.045 C 
ATOM      6  C   UNL     1      -4.295  -1.885   0.000  1.00  0.00     0.004 A 
ATOM      7  C   UNL     1      -3.189  -2.899   0.000  1.00  0.00     0.004 A 
ATOM      8  C   UNL     1      -1.759  -2.449   0.000  1.00  0.00    -0.041 A 
ATOM      9  C   UNL     1      -0.653  -3.462   0.000  1.00  0.00     0.045 C 
ATOM     10  C   UNL     1      -1.434  -0.984   0.000  1.00  0.00     0.013 A 
ATOM     11  C   UNL     1      -0.003  -0.534   0.000  1.00  0.00     0.098 A 
ATOM     12  N   UNL     1       1.103  -1.548   0.000  1.00  0.00    -0.244 NA
ATOM     13  C   UNL     1       2.533  -1.097   0.000  1.00  0.00     0.089 A 
ATOM     14  C   UNL     1       3.639  -2.111   0.000  1.00  0.00     0.030 A 
ATOM     15  C   UNL     1       5.070  -1.660   0.000  1.00  0.00     0.002 A 
ATOM     16  C   UNL     1       5.395  -0.196   0.000  1.00  0.00     0.002 A 
ATOM     17  C   UNL     1       4.289   0.818   0.000  1.00  0.00     0.030 A 
ATOM     18  C   UNL     1       2.859   0.367   0.000  1.00  0.00     0.089 A 
ATOM     19  N   UNL     1       1.753   1.381   0.000  1.00  0.00    -0.244 NA
ATOM     20  C   UNL     1       0.322   0.930   0.000  1.00  0.00     0.098 A 
ENDROOT
BRANCH   1  21
ATOM     21  C   UNL     1      -0.458   3.409   0.000  1.00  0.00    -0.049 C 
ATOM     22  C   UNL     1       0.973   3.859   0.000  1.00  0.00     0.013 C 
ATOM     23  C   UNL     1      -1.563   4.422   0.000  1.00  0.00     0.044 C 
ENDBRANCH   1  21
TORSDOF 1
