REMARK SMILES O=c1cc(-c2ccc(O)c(-c3c(O)cc(O)c4c(=O)cc(-c5ccc(O)cc5)oc34)c2)oc2cc(O)cc(O)c12
REMARK SMILES IDX 11 1 12 2 14 3 15 4 17 5 30 6 29 7 21 8 20 9 18 10 19 11
REMARK SMILES IDX 10 12 5 13 6 14 31 15 7 16 8 17 4 18 2 19 3 20 40 21 38 22
REMARK SMILES IDX 33 23 32 24 37 25 34 26 35 27 1 28 39 29 36 31 9 33 13 35
REMARK SMILES IDX 16 37 22 39 23 40 28 41 24 42 27 43 25 44 26 45
REMARK H PARENT 39 30 36 32 9 34 13 36 16 38 26 46
ROOT
ATOM      1  C   UNL     1      -1.341  -1.689   0.000  1.00  0.00     0.071 A 
ATOM      2  C   UNL     1      -0.769  -3.076   0.000  1.00  0.00     0.131 A 
ATOM      3  C   UNL     1      -1.683  -4.264   0.000  1.00  0.00     0.094 A 
ATOM      4  C   UNL     1      -3.170  -4.067   0.000  1.00  0.00     0.134 A 
ATOM      5  C   UNL     1      -3.742  -2.680   0.000  1.00  0.00     0.107 A 
ATOM      6  C   UNL     1      -2.828  -1.491   0.000  1.00  0.00     0.154 A 
ATOM      7  O   UNL     1      -3.400  -0.105   0.000  1.00  0.00    -0.455 OA
ATOM      8  C   UNL     1      -4.887   0.093   0.000  1.00  0.00     0.138 A 
ATOM      9  C   UNL     1      -5.801  -1.096   0.000  1.00  0.00     0.100 A 
ATOM     10  C   UNL     1      -5.229  -2.482   0.000  1.00  0.00     0.197 A 
ATOM     11  O   UNL     1      -6.144  -3.671   0.000  1.00  0.00    -0.289 OA
ENDROOT
BRANCH   1  12
ATOM     12  C   UNL     1      -0.426  -0.500   0.000  1.00  0.00     0.032 A 
ATOM     13  C   UNL     1       1.976   0.491   0.000  1.00  0.00     0.018 A 
ATOM     14  C   UNL     1       1.404   1.877   0.000  1.00  0.00     0.016 A 
ATOM     15  C   UNL     1       1.061  -0.698   0.000  1.00  0.00     0.024 A 
ATOM     16  C   UNL     1      -0.083   2.075   0.000  1.00  0.00     0.047 A 
ATOM     17  C   UNL     1      -0.998   0.886   0.000  1.00  0.00     0.123 A 
BRANCH  13  18
ATOM     18  C   UNL     1       3.463   0.293   0.000  1.00  0.00     0.138 A 
ATOM     19  C   UNL     1       5.522  -1.292   0.000  1.00  0.00     0.197 A 
ATOM     20  C   UNL     1       4.035  -1.094   0.000  1.00  0.00     0.100 A 
ATOM     21  C   UNL     1       6.436  -0.103   0.000  1.00  0.00     0.107 A 
ATOM     22  C   UNL     1       7.923  -0.300   0.000  1.00  0.00     0.134 A 
ATOM     23  C   UNL     1       5.864   1.284   0.000  1.00  0.00     0.146 A 
ATOM     24  O   UNL     1       4.377   1.482   0.000  1.00  0.00    -0.456 OA
ATOM     25  C   UNL     1       8.838   0.888   0.000  1.00  0.00     0.093 A 
ATOM     26  C   UNL     1       6.779   2.473   0.000  1.00  0.00     0.094 A 
ATOM     27  C   UNL     1       8.266   2.275   0.000  1.00  0.00     0.123 A 
ATOM     28  O   UNL     1       6.094  -2.678   0.000  1.00  0.00    -0.289 OA
BRANCH  22  29
ATOM     29  O   UNL     1       8.495  -1.687   0.000  1.00  0.00    -0.507 OA
ATOM     30  H   UNL     1       0.000   0.000   0.000  1.00  0.00     0.293 HD
ENDBRANCH  22  29
BRANCH  27  31
ATOM     31  O   UNL     1       9.181   3.464   0.000  1.00  0.00    -0.508 OA
ATOM     32  H   UNL     1       0.000   0.000   0.000  1.00  0.00     0.293 HD
ENDBRANCH  27  31
ENDBRANCH  13  18
BRANCH  17  33
ATOM     33  O   UNL     1      -2.485   1.084   0.000  1.00  0.00    -0.507 OA
ATOM     34  H   UNL     1       0.000   0.000   0.000  1.00  0.00     0.293 HD
ENDBRANCH  17  33
ENDBRANCH   1  12
BRANCH   2  35
ATOM     35  O   UNL     1       0.718  -3.273   0.000  1.00  0.00    -0.507 OA
ATOM     36  H   UNL     1       0.000   0.000   0.000  1.00  0.00     0.293 HD
ENDBRANCH   2  35
BRANCH   4  37
ATOM     37  O   UNL     1      -4.085  -5.255   0.000  1.00  0.00    -0.507 OA
ATOM     38  H   UNL     1       0.000   0.000   0.000  1.00  0.00     0.293 HD
ENDBRANCH   4  37
BRANCH   8  39
ATOM     39  C   UNL     1      -5.459   1.480   0.000  1.00  0.00     0.018 A 
ATOM     40  C   UNL     1      -4.544   2.668   0.000  1.00  0.00     0.016 A 
ATOM     41  C   UNL     1      -6.946   1.677   0.000  1.00  0.00     0.016 A 
ATOM     42  C   UNL     1      -5.116   4.055   0.000  1.00  0.00     0.047 A 
ATOM     43  C   UNL     1      -7.518   3.064   0.000  1.00  0.00     0.047 A 
ATOM     44  C   UNL     1      -6.603   4.253   0.000  1.00  0.00     0.115 A 
BRANCH  44  45
ATOM     45  O   UNL     1      -7.175   5.639   0.000  1.00  0.00    -0.508 OA
ATOM     46  H   UNL     1       0.000   0.000   0.000  1.00  0.00     0.293 HD
ENDBRANCH  44  45
ENDBRANCH   8  39
TORSDOF 9
