REMARK SMILES COc1ccc(C[C@H]2CO[C@H](c3ccc(OC)c(OC)c3)[C@H]2CO)cc1OC
REMARK SMILES IDX 8 1 9 2 10 3 11 4 22 5 7 6 6 7 3 8 4 9 26 10 5 11 25 12 2 13
REMARK SMILES IDX 1 14 27 15 28 16 23 17 24 18 12 20 13 21 21 22 14 23 18 24
REMARK SMILES IDX 15 25 19 26 20 27 16 28 17 29
REMARK H PARENT 24 19
ROOT
ATOM      1  C   UNL     1      -0.960   2.580   0.000  1.00  0.00     0.028 C 
ATOM      2  C   UNL     1       0.045   3.693   0.000  1.00  0.00     0.165 C 
ATOM      3  O   UNL     1       1.415   3.081   0.000  1.00  0.00    -0.373 OA
ATOM      4  C   UNL     1       1.255   1.589   0.000  1.00  0.00     0.154 C 
ATOM      5  C   UNL     1      -0.212   1.280   0.000  1.00  0.00     0.054 C 
ENDROOT
BRANCH   1   6
ATOM      6  C   UNL     1      -2.452   2.740   0.000  1.00  0.00     0.042 C 
BRANCH   6   7
ATOM      7  C   UNL     1      -3.336   1.528   0.000  1.00  0.00    -0.044 A 
ATOM      8  C   UNL     1      -5.103  -0.896   0.000  1.00  0.00     0.160 A 
ATOM      9  C   UNL     1      -5.711   0.475   0.000  1.00  0.00     0.051 A 
ATOM     10  C   UNL     1      -3.611  -1.056   0.000  1.00  0.00     0.160 A 
ATOM     11  C   UNL     1      -4.827   1.687   0.000  1.00  0.00     0.008 A 
ATOM     12  C   UNL     1      -2.728   0.156   0.000  1.00  0.00     0.054 A 
BRANCH   8  13
ATOM     13  O   UNL     1      -5.987  -2.108   0.000  1.00  0.00    -0.493 OA
ATOM     14  C   UNL     1      -7.478  -1.949   0.000  1.00  0.00     0.278 C 
ENDBRANCH   8  13
BRANCH  10  15
ATOM     15  O   UNL     1      -3.004  -2.427   0.000  1.00  0.00    -0.493 OA
ATOM     16  C   UNL     1      -1.512  -2.586   0.000  1.00  0.00     0.278 C 
ENDBRANCH  10  15
ENDBRANCH   6   7
ENDBRANCH   1   6
BRANCH   5  17
ATOM     17  C   UNL     1      -0.825  -0.089   0.000  1.00  0.00     0.163 C 
BRANCH  17  18
ATOM     18  O   UNL     1       0.055  -1.304   0.000  1.00  0.00    -0.396 OA
ATOM     19  H   UNL     1       0.000   0.000   0.000  1.00  0.00     0.210 HD
ENDBRANCH  17  18
ENDBRANCH   5  17
BRANCH   4  20
ATOM     20  C   UNL     1       2.368   0.584   0.000  1.00  0.00    -0.015 A 
ATOM     21  C   UNL     1       2.054  -0.883   0.000  1.00  0.00     0.010 A 
ATOM     22  C   UNL     1       3.796   1.045   0.000  1.00  0.00     0.056 A 
ATOM     23  C   UNL     1       3.167  -1.888   0.000  1.00  0.00     0.051 A 
ATOM     24  C   UNL     1       4.909   0.040   0.000  1.00  0.00     0.161 A 
ATOM     25  C   UNL     1       4.594  -1.427   0.000  1.00  0.00     0.160 A 
BRANCH  24  26
ATOM     26  O   UNL     1       6.336   0.501   0.000  1.00  0.00    -0.493 OA
ATOM     27  C   UNL     1       6.650   1.967   0.000  1.00  0.00     0.278 C 
ENDBRANCH  24  26
BRANCH  25  28
ATOM     28  O   UNL     1       5.707  -2.433   0.000  1.00  0.00    -0.493 OA
ATOM     29  C   UNL     1       5.393  -3.899   0.000  1.00  0.00     0.278 C 
ENDBRANCH  25  28
ENDBRANCH   4  20
TORSDOF 9
