REMARK SMILES C[C@H](O)[C@H](O)[C@H](O)[C@@H](O)C=O
REMARK SMILES IDX 4 1 2 2 1 3 3 4 5 6 6 8 7 9 8 11 9 12 10 14 11 15
REMARK H PARENT 3 5 5 7 7 10 9 13
ROOT
ATOM      1  C   UNL     1       1.016   0.462   0.000  1.00  0.00     0.174 C 
ENDROOT
BRANCH   1   2
ATOM      2  C   UNL     1       2.393  -0.131   0.000  1.00  0.00     0.142 C 
ATOM      3  C   UNL     1       3.596   0.765   0.000  1.00  0.00     0.041 C 
BRANCH   2   4
ATOM      4  O   UNL     1       2.568  -1.621   0.000  1.00  0.00    -0.391 OA
ATOM      5  H   UNL     1       0.000   0.000   0.000  1.00  0.00     0.211 HD
ENDBRANCH   2   4
ENDBRANCH   1   2
BRANCH   1   6
ATOM      6  O   UNL     1       0.841   1.952   0.000  1.00  0.00    -0.388 OA
ATOM      7  H   UNL     1       0.000   0.000   0.000  1.00  0.00     0.211 HD
ENDBRANCH   1   6
BRANCH   1   8
ATOM      8  C   UNL     1      -0.187  -0.434   0.000  1.00  0.00     0.181 C 
BRANCH   8   9
ATOM      9  O   UNL     1      -0.012  -1.924   0.000  1.00  0.00    -0.387 OA
ATOM     10  H   UNL     1       0.000   0.000   0.000  1.00  0.00     0.211 HD
ENDBRANCH   8   9
BRANCH   8  11
ATOM     11  C   UNL     1      -1.565   0.160   0.000  1.00  0.00     0.209 C 
BRANCH  11  12
ATOM     12  O   UNL     1      -1.739   1.650   0.000  1.00  0.00    -0.383 OA
ATOM     13  H   UNL     1       0.000   0.000   0.000  1.00  0.00     0.211 HD
ENDBRANCH  11  12
BRANCH  11  14
ATOM     14  C   UNL     1      -2.767  -0.736   0.000  1.00  0.00     0.258 C 
ATOM     15  O   UNL     1      -4.145  -0.143   0.000  1.00  0.00    -0.300 OA
ENDBRANCH  11  14
ENDBRANCH   8  11
ENDBRANCH   1   8
TORSDOF 8
