REMARK SMILES COc1cc(-c2cccnc2)oc(=O)c1
REMARK SMILES IDX 3 1 15 2 13 3 14 4 12 5 5 6 4 7 2 8 1 9 6 10 7 11 11 12 8 13
REMARK SMILES IDX 10 14 9 15
REMARK H PARENT
ROOT
ATOM      1  C   UNL     1      -2.278  -0.837   0.000  1.00  0.00     0.129 A 
ATOM      2  C   UNL     1      -2.853   0.548   0.000  1.00  0.00     0.140 A 
ATOM      3  C   UNL     1      -1.941   1.739   0.000  1.00  0.00     0.339 A 
ATOM      4  O   UNL     1      -2.516   3.124   0.000  1.00  0.00    -0.246 OA
ATOM      5  O   UNL     1      -0.453   1.544   0.000  1.00  0.00    -0.422 OA
ATOM      6  C   UNL     1       0.122   0.159   0.000  1.00  0.00     0.143 A 
ATOM      7  C   UNL     1      -0.791  -1.032   0.000  1.00  0.00     0.094 A 
ENDROOT
BRANCH   1   8
ATOM      8  O   UNL     1      -3.190  -2.028   0.000  1.00  0.00    -0.496 OA
ATOM      9  C   UNL     1      -4.678  -1.833   0.000  1.00  0.00     0.278 C 
ENDBRANCH   1   8
BRANCH   6  10
ATOM     10  C   UNL     1       1.609  -0.036   0.000  1.00  0.00     0.036 A 
ATOM     11  C   UNL     1       2.184  -1.421   0.000  1.00  0.00     0.015 A 
ATOM     12  C   UNL     1       2.521   1.155   0.000  1.00  0.00     0.123 A 
ATOM     13  C   UNL     1       3.671  -1.616   0.000  1.00  0.00     0.021 A 
ATOM     14  N   UNL     1       4.009   0.960   0.000  1.00  0.00    -0.264 NA
ATOM     15  C   UNL     1       4.583  -0.425   0.000  1.00  0.00     0.111 A 
ENDBRANCH   6  10
TORSDOF 2
