REMARK SMILES C=C(C)C1C[C@H](O)[C@]2(C)C(CCC3[C@@H]([C@]4(C)CC[C@@H](C(C)(C)O)O4)C[C@H](O)[C@]32C)[C@@]1(C)CCC(=O)O
REMARK SMILES IDX 4 1 5 2 6 3 8 4 9 5 10 6 11 7 12 8 13 9 14 10 25 11 26 12
REMARK SMILES IDX 28 13 29 14 30 15 31 16 2 17 1 18 3 19 32 20 33 21 34 22
REMARK SMILES IDX 35 23 36 24 7 26 27 28 15 30 17 31 24 32 18 33 19 34 16 35
REMARK SMILES IDX 20 36 21 37 22 38 23 39
REMARK H PARENT 36 25 7 27 27 29 23 40
ROOT
ATOM      1  C   UNL     1      -3.889   1.201   0.000  1.00  0.00     0.023 C 
ATOM      2  C   UNL     1      -3.044   2.440   0.000  1.00  0.00     0.041 C 
ATOM      3  C   UNL     1      -1.548   2.328   0.000  1.00  0.00     0.122 C 
ATOM      4  C   UNL     1      -0.897   0.976   0.000  1.00  0.00     0.005 C 
ATOM      5  C   UNL     1      -2.393   1.088   0.000  1.00  0.00     0.015 C 
ATOM      6  C   UNL     1      -1.742  -0.263   0.000  1.00  0.00     0.005 C 
ATOM      7  C   UNL     1      -1.092  -1.615   0.000  1.00  0.00     0.005 C 
ATOM      8  C   UNL     1       0.404  -1.727   0.000  1.00  0.00     0.005 C 
ATOM      9  C   UNL     1       1.249  -0.488   0.000  1.00  0.00     0.004 C 
ATOM     10  C   UNL     1       2.736  -0.287   0.000  1.00  0.00     0.027 C 
ATOM     11  C   UNL     1       3.004   1.189   0.000  1.00  0.00     0.039 C 
ATOM     12  C   UNL     1       1.683   1.900   0.000  1.00  0.00     0.121 C 
ATOM     13  C   UNL     1       0.598   0.864   0.000  1.00  0.00     0.005 C 
ATOM     14  C   UNL     1       0.093   2.276   0.000  1.00  0.00     0.015 C 
ATOM     15  C   UNL     1      -3.238  -0.151   0.000  1.00  0.00    -0.022 C 
ATOM     16  C   UNL     1      -3.089  -1.644   0.000  1.00  0.00     0.012 C 
ENDROOT
BRANCH   1  17
ATOM     17  C   UNL     1      -5.385   1.313   0.000  1.00  0.00    -0.077 C 
ATOM     18  C   UNL     1      -6.230   0.074   0.000  1.00  0.00     0.008 C 
ATOM     19  C   UNL     1      -6.035   2.664   0.000  1.00  0.00     0.039 C 
ENDBRANCH   1  17
BRANCH  15  20
ATOM     20  C   UNL     1      -4.682  -0.557   0.000  1.00  0.00     0.019 C 
BRANCH  20  21
ATOM     21  C   UNL     1      -5.053  -2.011   0.000  1.00  0.00     0.123 C 
BRANCH  21  22
ATOM     22  C   UNL     1      -6.497  -2.417   0.000  1.00  0.00     0.303 C 
ATOM     23  O   UNL     1      -7.570  -1.369   0.000  1.00  0.00    -0.252 OA
BRANCH  22  24
ATOM     24  O   UNL     1      -6.867  -3.870   0.000  1.00  0.00    -0.481 OA
ATOM     25  H   UNL     1       0.000   0.000   0.000  1.00  0.00     0.296 HD
ENDBRANCH  22  24
ENDBRANCH  21  22
ENDBRANCH  20  21
ENDBRANCH  15  20
BRANCH   3  26
ATOM     26  O   UNL     1      -0.703   3.567   0.000  1.00  0.00    -0.393 OA
ATOM     27  H   UNL     1       0.000   0.000   0.000  1.00  0.00     0.210 HD
ENDBRANCH   3  26
BRANCH  12  28
ATOM     28  O   UNL     1       1.482   3.386   0.000  1.00  0.00    -0.393 OA
ATOM     29  H   UNL     1       0.000   0.000   0.000  1.00  0.00     0.210 HD
ENDBRANCH  12  28
BRANCH  10  30
ATOM     30  C   UNL     1       3.772  -1.371   0.000  1.00  0.00     0.069 C 
ATOM     31  C   UNL     1       4.560  -2.647   0.000  1.00  0.00     0.038 C 
ATOM     32  O   UNL     1       4.742  -0.227   0.000  1.00  0.00    -0.369 OA
ATOM     33  C   UNL     1       6.018  -2.292   0.000  1.00  0.00     0.038 C 
ATOM     34  C   UNL     1       6.130  -0.796   0.000  1.00  0.00     0.150 C 
ATOM     35  C   UNL     1       2.585  -2.289   0.000  1.00  0.00     0.042 C 
BRANCH  34  36
ATOM     36  C   UNL     1       7.406  -0.008   0.000  1.00  0.00     0.085 C 
ATOM     37  C   UNL     1       6.618   1.268   0.000  1.00  0.00     0.044 C 
ATOM     38  C   UNL     1       8.194  -1.284   0.000  1.00  0.00     0.044 C 
BRANCH  36  39
ATOM     39  O   UNL     1       8.682   0.780   0.000  1.00  0.00    -0.388 OA
ATOM     40  H   UNL     1       0.000   0.000   0.000  1.00  0.00     0.211 HD
ENDBRANCH  36  39
ENDBRANCH  34  36
ENDBRANCH  10  30
TORSDOF 10
