REMARK SMILES C/C(=C\CO)CCC[C@H](C)CCC[C@H](C)CCCC(C)C
REMARK SMILES IDX 9 1 10 2 8 3 7 4 6 5 2 6 1 7 3 8 4 9 5 10 11 12 12 13 13 14
REMARK SMILES IDX 14 15 15 16 16 17 17 18 18 19 19 20 20 21 21 22
REMARK H PARENT 5 11
ROOT
ATOM      1  C   UNL     1       1.067  -1.732   0.000  1.00  0.00    -0.014 C 
ATOM      2  C   UNL     1       0.126  -2.900   0.000  1.00  0.00     0.007 C 
ENDROOT
BRANCH   1   3
ATOM      3  C   UNL     1       2.550  -1.963   0.000  1.00  0.00     0.003 C 
BRANCH   3   4
ATOM      4  C   UNL     1       3.491  -0.795   0.000  1.00  0.00     0.005 C 
BRANCH   4   5
ATOM      5  C   UNL     1       4.973  -1.026   0.000  1.00  0.00     0.030 C 
BRANCH   5   6
ATOM      6  C   UNL     1       5.914   0.142   0.000  1.00  0.00    -0.075 C 
ATOM      7  C   UNL     1       5.373   1.541   0.000  1.00  0.00     0.039 C 
BRANCH   6   8
ATOM      8  C   UNL     1       7.396  -0.089   0.000  1.00  0.00    -0.000 C 
BRANCH   8   9
ATOM      9  C   UNL     1       8.337   1.079   0.000  1.00  0.00     0.183 C 
BRANCH   9  10
ATOM     10  O   UNL     1       9.819   0.848   0.000  1.00  0.00    -0.392 OA
ATOM     11  H   UNL     1       0.000   0.000   0.000  1.00  0.00     0.210 HD
ENDBRANCH   9  10
ENDBRANCH   8   9
ENDBRANCH   6   8
ENDBRANCH   5   6
ENDBRANCH   4   5
ENDBRANCH   3   4
ENDBRANCH   1   3
BRANCH   1  12
ATOM     12  C   UNL     1       0.526  -0.333   0.000  1.00  0.00     0.003 C 
BRANCH  12  13
ATOM     13  C   UNL     1      -0.956  -0.101   0.000  1.00  0.00     0.001 C 
BRANCH  13  14
ATOM     14  C   UNL     1      -1.496   1.298   0.000  1.00  0.00     0.003 C 
BRANCH  14  15
ATOM     15  C   UNL     1      -2.979   1.529   0.000  1.00  0.00    -0.014 C 
ATOM     16  C   UNL     1      -3.519   2.928   0.000  1.00  0.00     0.007 C 
BRANCH  15  17
ATOM     17  C   UNL     1      -3.920   0.361   0.000  1.00  0.00     0.003 C 
BRANCH  17  18
ATOM     18  C   UNL     1      -5.402   0.592   0.000  1.00  0.00     0.001 C 
BRANCH  18  19
ATOM     19  C   UNL     1      -6.343  -0.576   0.000  1.00  0.00     0.003 C 
BRANCH  19  20
ATOM     20  C   UNL     1      -7.825  -0.345   0.000  1.00  0.00    -0.017 C 
ATOM     21  C   UNL     1      -8.766  -1.513   0.000  1.00  0.00     0.007 C 
ATOM     22  C   UNL     1      -8.366   1.054   0.000  1.00  0.00     0.007 C 
ENDBRANCH  19  20
ENDBRANCH  18  19
ENDBRANCH  17  18
ENDBRANCH  15  17
ENDBRANCH  14  15
ENDBRANCH  13  14
ENDBRANCH  12  13
ENDBRANCH   1  12
TORSDOF 15
