REMARK SMILES Cc1cc(=O)c2c(C)cc(O)cc2o1
REMARK SMILES IDX 1 1 2 2 3 3 4 4 5 5 6 6 7 7 8 8 9 9 10 10 12 11 13 12 14 13
REMARK SMILES IDX 11 14
REMARK H PARENT 11 15
ROOT
ATOM      1  C   UNL     1      -3.897  -1.714   0.000  1.00  0.00     0.088 C 
ATOM      2  C   UNL     1      -2.598  -0.964   0.000  1.00  0.00     0.105 A 
ATOM      3  C   UNL     1      -2.598   0.536   0.000  1.00  0.00     0.094 A 
ATOM      4  C   UNL     1      -1.299   1.286   0.000  1.00  0.00     0.193 A 
ATOM      5  O   UNL     1      -1.299   2.786   0.000  1.00  0.00    -0.289 OA
ATOM      6  C   UNL     1      -0.000   0.536   0.000  1.00  0.00     0.068 A 
ATOM      7  C   UNL     1       1.299   1.286   0.000  1.00  0.00    -0.033 A 
ATOM      8  C   UNL     1       1.299   2.786   0.000  1.00  0.00     0.045 C 
ATOM      9  C   UNL     1       2.598   0.536   0.000  1.00  0.00     0.050 A 
ATOM     10  C   UNL     1       2.598  -0.964   0.000  1.00  0.00     0.119 A 
ATOM     11  C   UNL     1       1.299  -1.714   0.000  1.00  0.00     0.094 A 
ATOM     12  C   UNL     1       0.000  -0.964   0.000  1.00  0.00     0.142 A 
ATOM     13  O   UNL     1      -1.299  -1.714   0.000  1.00  0.00    -0.461 OA
ENDROOT
BRANCH  10  14
ATOM     14  O   UNL     1       3.897  -1.714   0.000  1.00  0.00    -0.508 OA
ATOM     15  H   UNL     1       0.000   0.000   0.000  1.00  0.00     0.293 HD
ENDBRANCH  10  14
TORSDOF 1
