REMARK SMILES CC1=CC2=C(Cc3c(O)c(C)c4c(c3O)C(=O)OC(C)C4)C(=O)[C@](C)(O)[C@@H](O)C2=CO1
REMARK SMILES IDX 6 1 5 2 2 3 3 4 31 5 4 6 30 7 29 8 22 9 27 10 24 11 1 12
REMARK SMILES IDX 23 13 25 14 28 15 26 17 7 19 8 20 14 21 10 22 13 23 12 24
REMARK SMILES IDX 16 25 21 26 18 27 19 28 11 29 17 30 20 31 9 32 15 34
REMARK H PARENT 28 16 26 18 9 33 15 35
ROOT
ATOM      1  C   UNL     1       0.483  -1.124   0.000  1.00  0.00     0.083 C 
ENDROOT
BRANCH   1   2
ATOM      2  C   UNL     1       1.675  -0.214   0.000  1.00  0.00     0.011 C 
ATOM      3  C   UNL     1       4.637  -2.855   0.000  1.00  0.00     0.101 C 
ATOM      4  C   UNL     1       3.253  -2.278   0.000  1.00  0.00     0.051 C 
ATOM      5  O   UNL     1       5.829  -1.945   0.000  1.00  0.00    -0.469 OA
ATOM      6  C   UNL     1       3.060  -0.791   0.000  1.00  0.00    -0.006 C 
ATOM      7  C   UNL     1       5.637  -0.457   0.000  1.00  0.00     0.202 C 
ATOM      8  C   UNL     1       4.252   0.120   0.000  1.00  0.00     0.027 C 
ATOM      9  C   UNL     1       1.483   1.274   0.000  1.00  0.00     0.194 C 
ATOM     10  C   UNL     1       4.060   1.607   0.000  1.00  0.00     0.187 C 
ATOM     11  C   UNL     1       2.675   2.184   0.000  1.00  0.00     0.154 C 
ATOM     12  C   UNL     1       4.830  -4.343   0.000  1.00  0.00     0.087 C 
ATOM     13  O   UNL     1       0.628   1.760   0.000  1.00  0.00    -0.291 OA
ATOM     14  C   UNL     1       3.484   3.448   0.000  1.00  0.00     0.054 C 
BRANCH  10  15
ATOM     15  O   UNL     1       5.252   2.518   0.000  1.00  0.00    -0.385 OA
ATOM     16  H   UNL     1       0.000   0.000   0.000  1.00  0.00     0.211 HD
ENDBRANCH  10  15
BRANCH  11  17
ATOM     17  O   UNL     1       1.571   3.200   0.000  1.00  0.00    -0.379 OA
ATOM     18  H   UNL     1       0.000   0.000   0.000  1.00  0.00     0.212 HD
ENDBRANCH  11  17
ENDBRANCH   1   2
BRANCH   1  19
ATOM     19  C   UNL     1      -0.901  -0.547   0.000  1.00  0.00     0.041 A 
ATOM     20  C   UNL     1      -1.093   0.941   0.000  1.00  0.00     0.126 A 
ATOM     21  C   UNL     1      -2.093  -1.458   0.000  1.00  0.00     0.137 A 
ATOM     22  C   UNL     1      -2.478   1.518   0.000  1.00  0.00    -0.004 A 
ATOM     23  C   UNL     1      -3.478  -0.880   0.000  1.00  0.00     0.105 A 
ATOM     24  C   UNL     1      -3.670   0.607   0.000  1.00  0.00    -0.019 A 
ATOM     25  C   UNL     1      -4.670  -1.791   0.000  1.00  0.00     0.342 C 
ATOM     26  C   UNL     1      -5.055   1.184   0.000  1.00  0.00     0.082 C 
ATOM     27  O   UNL     1      -6.054  -1.214   0.000  1.00  0.00    -0.459 OA
ATOM     28  C   UNL     1      -6.247   0.274   0.000  1.00  0.00     0.178 C 
ATOM     29  C   UNL     1      -2.671   3.005   0.000  1.00  0.00     0.049 C 
ATOM     30  O   UNL     1      -4.477  -3.279   0.000  1.00  0.00    -0.246 OA
ATOM     31  C   UNL     1      -7.631   0.851   0.000  1.00  0.00     0.053 C 
BRANCH  20  32
ATOM     32  O   UNL     1      -0.390   1.629   0.000  1.00  0.00    -0.507 OA
ATOM     33  H   UNL     1       0.000   0.000   0.000  1.00  0.00     0.293 HD
ENDBRANCH  20  32
BRANCH  21  34
ATOM     34  O   UNL     1      -1.901  -2.945   0.000  1.00  0.00    -0.507 OA
ATOM     35  H   UNL     1       0.000   0.000   0.000  1.00  0.00     0.293 HD
ENDBRANCH  21  34
ENDBRANCH   1  19
TORSDOF 6
