REMARK SMILES COc1cc(-c2cc(=O)c3c(O)cc(O)cc3o2)ccc1O
REMARK SMILES IDX 6 1 7 2 8 3 9 4 10 5 11 6 13 7 14 8 16 9 17 10 18 11 5 12
REMARK SMILES IDX 3 13 4 14 21 15 20 16 19 17 2 18 1 19 22 20 12 22 15 24
REMARK H PARENT 22 21 12 23 15 25
ROOT
ATOM      1  C   UNL     1      -0.345  -0.588   0.000  1.00  0.00     0.138 A 
ATOM      2  C   UNL     1       0.397  -1.892   0.000  1.00  0.00     0.100 A 
ATOM      3  C   UNL     1       1.897  -1.902   0.000  1.00  0.00     0.197 A 
ATOM      4  O   UNL     1       2.639  -3.205   0.000  1.00  0.00    -0.289 OA
ATOM      5  C   UNL     1       2.655  -0.607   0.000  1.00  0.00     0.107 A 
ATOM      6  C   UNL     1       4.155  -0.617   0.000  1.00  0.00     0.134 A 
ATOM      7  C   UNL     1       4.913   0.677   0.000  1.00  0.00     0.093 A 
ATOM      8  C   UNL     1       4.172   1.981   0.000  1.00  0.00     0.123 A 
ATOM      9  C   UNL     1       2.672   1.991   0.000  1.00  0.00     0.094 A 
ATOM     10  C   UNL     1       1.913   0.696   0.000  1.00  0.00     0.146 A 
ATOM     11  O   UNL     1       0.414   0.706   0.000  1.00  0.00    -0.456 OA
ENDROOT
BRANCH   1  12
ATOM     12  C   UNL     1      -1.845  -0.579   0.000  1.00  0.00     0.021 A 
ATOM     13  C   UNL     1      -4.086   0.735   0.000  1.00  0.00     0.161 A 
ATOM     14  C   UNL     1      -2.586   0.725   0.000  1.00  0.00     0.062 A 
ATOM     15  C   UNL     1      -4.845  -0.560   0.000  1.00  0.00     0.157 A 
ATOM     16  C   UNL     1      -4.103  -1.863   0.000  1.00  0.00     0.051 A 
ATOM     17  C   UNL     1      -2.603  -1.873   0.000  1.00  0.00     0.016 A 
BRANCH  13  18
ATOM     18  O   UNL     1      -4.828   2.038   0.000  1.00  0.00    -0.493 OA
ATOM     19  C   UNL     1      -4.070   3.333   0.000  1.00  0.00     0.278 C 
ENDBRANCH  13  18
BRANCH  15  20
ATOM     20  O   UNL     1      -6.345  -0.550   0.000  1.00  0.00    -0.504 OA
ATOM     21  H   UNL     1       0.000   0.000   0.000  1.00  0.00     0.293 HD
ENDBRANCH  15  20
ENDBRANCH   1  12
BRANCH   6  22
ATOM     22  O   UNL     1       4.897  -1.921   0.000  1.00  0.00    -0.507 OA
ATOM     23  H   UNL     1       0.000   0.000   0.000  1.00  0.00     0.293 HD
ENDBRANCH   6  22
BRANCH   8  24
ATOM     24  O   UNL     1       4.930   3.275   0.000  1.00  0.00    -0.508 OA
ATOM     25  H   UNL     1       0.000   0.000   0.000  1.00  0.00     0.293 HD
ENDBRANCH   8  24
TORSDOF 5
