REMARK SMILES CC(=O)O[C@H]1[C@@H](OC(C)=O)[C@]2(C)[C@H](CC[C@@]3(C)[C@H](c4ccoc4)OC(=O)[C@H]4O[C@@]423)[C@@]2(C)C=CC(=O)C(C)(C)[C@H]12
REMARK SMILES IDX 5 1 6 2 11 3 12 4 13 5 14 6 15 7 16 8 17 9 18 10 24 11 25 12
REMARK SMILES IDX 26 13 27 14 28 15 29 16 30 17 31 18 32 19 33 20 34 21 35 22
REMARK SMILES IDX 36 23 37 24 38 25 39 26 4 27 2 28 1 29 3 30 7 31 8 32 9 33
REMARK SMILES IDX 10 34 19 35 23 36 20 37 22 38 21 39
REMARK H PARENT
ROOT
ATOM      1  C   UNL     1      -2.674  -0.608   0.000  1.00  0.00     0.223 C 
ATOM      2  C   UNL     1      -1.247  -1.071   0.000  1.00  0.00     0.227 C 
ATOM      3  C   UNL     1      -0.132  -0.068   0.000  1.00  0.00     0.045 C 
ATOM      4  C   UNL     1      -1.559   0.396   0.000  1.00  0.00     0.019 C 
ATOM      5  C   UNL     1      -0.444   1.399   0.000  1.00  0.00     0.012 C 
ATOM      6  C   UNL     1       0.671   2.403   0.000  1.00  0.00     0.006 C 
ATOM      7  C   UNL     1       2.097   1.940   0.000  1.00  0.00     0.014 C 
ATOM      8  C   UNL     1       2.409   0.472   0.000  1.00  0.00     0.042 C 
ATOM      9  C   UNL     1       3.524   1.476   0.000  1.00  0.00     0.019 C 
ATOM     10  C   UNL     1       3.836   0.009   0.000  1.00  0.00     0.219 C 
ATOM     11  O   UNL     1       4.147  -1.458   0.000  1.00  0.00    -0.455 OA
ATOM     12  C   UNL     1       3.033  -2.462   0.000  1.00  0.00     0.339 C 
ATOM     13  O   UNL     1       3.344  -3.929   0.000  1.00  0.00    -0.249 OA
ATOM     14  C   UNL     1       1.606  -1.999   0.000  1.00  0.00     0.262 C 
ATOM     15  O   UNL     1       0.179  -1.535   0.000  1.00  0.00    -0.352 OA
ATOM     16  C   UNL     1       1.294  -0.531   0.000  1.00  0.00     0.125 C 
ATOM     17  C   UNL     1      -1.871   1.863   0.000  1.00  0.00    -0.003 C 
ATOM     18  C   UNL     1      -0.756   2.867   0.000  1.00  0.00     0.016 C 
ATOM     19  C   UNL     1      -2.183   3.330   0.000  1.00  0.00    -0.016 C 
ATOM     20  C   UNL     1      -3.609   3.794   0.000  1.00  0.00     0.044 C 
ATOM     21  C   UNL     1      -4.724   2.790   0.000  1.00  0.00     0.161 C 
ATOM     22  O   UNL     1      -6.150   3.254   0.000  1.00  0.00    -0.294 OA
ATOM     23  C   UNL     1      -4.412   1.323   0.000  1.00  0.00     0.035 C 
ATOM     24  C   UNL     1      -4.621  -0.162   0.000  1.00  0.00     0.020 C 
ATOM     25  C   UNL     1      -5.911   1.271   0.000  1.00  0.00     0.020 C 
ATOM     26  C   UNL     1      -2.986   0.860   0.000  1.00  0.00     0.057 C 
ENDROOT
BRANCH   1  27
ATOM     27  O   UNL     1      -3.788  -1.611   0.000  1.00  0.00    -0.458 OA
BRANCH  27  28
ATOM     28  C   UNL     1      -3.477  -3.079   0.000  1.00  0.00     0.303 C 
ATOM     29  C   UNL     1      -4.591  -4.082   0.000  1.00  0.00     0.139 C 
ATOM     30  O   UNL     1      -2.050  -3.542   0.000  1.00  0.00    -0.253 OA
ENDBRANCH  27  28
ENDBRANCH   1  27
BRANCH   2  31
ATOM     31  O   UNL     1      -0.935  -2.539   0.000  1.00  0.00    -0.458 OA
BRANCH  31  32
ATOM     32  C   UNL     1       0.491  -3.002   0.000  1.00  0.00     0.303 C 
ATOM     33  C   UNL     1       0.803  -4.469   0.000  1.00  0.00     0.139 C 
ATOM     34  O   UNL     1       1.195  -2.628   0.000  1.00  0.00    -0.253 OA
ENDBRANCH  31  32
ENDBRANCH   2  31
BRANCH  10  35
ATOM     35  C   UNL     1       4.950   1.012   0.000  1.00  0.00     0.031 A 
ATOM     36  C   UNL     1       4.793   2.504   0.000  1.00  0.00     0.202 A 
ATOM     37  C   UNL     1       6.418   0.700   0.000  1.00  0.00     0.049 A 
ATOM     38  O   UNL     1       6.164   3.114   0.000  1.00  0.00    -0.472 OA
ATOM     39  C   UNL     1       7.168   1.999   0.000  1.00  0.00     0.195 A 
ENDBRANCH  10  35
TORSDOF 5
