REMARK SMILES COc1cc(O)c2c(=O)cc(-c3ccc(O)cc3)oc2c1[C@@H]1O[C@H](CO)[C@@H](O)[C@H](O)[C@H]1O[C@@H]1O[C@@H](C)[C@H](O)[C@@H](O)[C@H]1O
REMARK SMILES IDX 22 1 23 2 24 3 27 4 29 5 31 6 21 7 3 8 4 9 5 10 20 11 7 12
REMARK SMILES IDX 19 13 8 14 11 15 10 16 9 17 2 18 1 19 6 20 12 22 13 23 18 24
REMARK SMILES IDX 14 25 17 26 15 27 16 28 32 30 33 31 34 32 41 33 35 34 39 35
REMARK SMILES IDX 37 36 36 37 42 38 40 40 38 42 25 44 26 45 30 47 28 49
REMARK H PARENT 6 21 16 29 42 39 40 41 38 43 26 46 30 48 28 50
ROOT
ATOM      1  C   UNL     1      -0.106   0.286   0.000  1.00  0.00     0.188 C 
ATOM      2  O   UNL     1       0.962   1.339   0.000  1.00  0.00    -0.362 OA
ATOM      3  C   UNL     1       0.584   2.791   0.000  1.00  0.00     0.176 C 
ATOM      4  C   UNL     1      -0.862   3.189   0.000  1.00  0.00     0.177 C 
ATOM      5  C   UNL     1      -1.930   2.136   0.000  1.00  0.00     0.177 C 
ATOM      6  C   UNL     1      -1.552   0.684   0.000  1.00  0.00     0.186 C 
ENDROOT
BRANCH   1   7
ATOM      7  C   UNL     1       0.272  -1.166   0.000  1.00  0.00     0.069 A 
ATOM      8  C   UNL     1      -0.797  -2.219   0.000  1.00  0.00     0.132 A 
ATOM      9  C   UNL     1      -0.419  -3.670   0.000  1.00  0.00     0.094 A 
ATOM     10  C   UNL     1       1.027  -4.069   0.000  1.00  0.00     0.134 A 
ATOM     11  C   UNL     1       1.718  -1.564   0.000  1.00  0.00     0.152 A 
ATOM     12  C   UNL     1       2.095  -3.016   0.000  1.00  0.00     0.107 A 
ATOM     13  O   UNL     1       2.786  -0.511   0.000  1.00  0.00    -0.455 OA
ATOM     14  C   UNL     1       3.542  -3.414   0.000  1.00  0.00     0.197 A 
ATOM     15  C   UNL     1       4.232  -0.910   0.000  1.00  0.00     0.138 A 
ATOM     16  C   UNL     1       4.610  -2.361   0.000  1.00  0.00     0.100 A 
ATOM     17  O   UNL     1       3.920  -4.866   0.000  1.00  0.00    -0.289 OA
BRANCH   8  18
ATOM     18  O   UNL     1      -2.243  -1.820   0.000  1.00  0.00    -0.496 OA
ATOM     19  C   UNL     1      -3.311  -2.873   0.000  1.00  0.00     0.278 C 
ENDBRANCH   8  18
BRANCH  10  20
ATOM     20  O   UNL     1       1.405  -5.521   0.000  1.00  0.00    -0.507 OA
ATOM     21  H   UNL     1       0.000   0.000   0.000  1.00  0.00     0.293 HD
ENDBRANCH  10  20
BRANCH  15  22
ATOM     22  C   UNL     1       5.300   0.143   0.000  1.00  0.00     0.018 A 
ATOM     23  C   UNL     1       6.746  -0.255   0.000  1.00  0.00     0.016 A 
ATOM     24  C   UNL     1       4.922   1.595   0.000  1.00  0.00     0.016 A 
ATOM     25  C   UNL     1       7.814   0.798   0.000  1.00  0.00     0.047 A 
ATOM     26  C   UNL     1       5.990   2.648   0.000  1.00  0.00     0.047 A 
ATOM     27  C   UNL     1       7.436   2.250   0.000  1.00  0.00     0.115 A 
BRANCH  27  28
ATOM     28  O   UNL     1       8.505   3.303   0.000  1.00  0.00    -0.508 OA
ATOM     29  H   UNL     1       0.000   0.000   0.000  1.00  0.00     0.293 HD
ENDBRANCH  27  28
ENDBRANCH  15  22
ENDBRANCH   1   7
BRANCH   6  30
ATOM     30  O   UNL     1      -2.621  -0.369   0.000  1.00  0.00    -0.341 OA
BRANCH  30  31
ATOM     31  C   UNL     1      -4.067   0.030   0.000  1.00  0.00     0.282 C 
ATOM     32  O   UNL     1      -4.445   1.482   0.000  1.00  0.00    -0.344 OA
ATOM     33  C   UNL     1      -5.135  -1.023   0.000  1.00  0.00     0.202 C 
ATOM     34  C   UNL     1      -5.891   1.880   0.000  1.00  0.00     0.150 C 
ATOM     35  C   UNL     1      -6.581  -0.625   0.000  1.00  0.00     0.179 C 
ATOM     36  C   UNL     1      -6.959   0.827   0.000  1.00  0.00     0.174 C 
ATOM     37  C   UNL     1      -6.269   3.332   0.000  1.00  0.00     0.041 C 
BRANCH  33  38
ATOM     38  O   UNL     1      -4.757  -2.475   0.000  1.00  0.00    -0.385 OA
ATOM     39  H   UNL     1       0.000   0.000   0.000  1.00  0.00     0.211 HD
ENDBRANCH  33  38
BRANCH  35  40
ATOM     40  O   UNL     1      -7.649  -1.678   0.000  1.00  0.00    -0.387 OA
ATOM     41  H   UNL     1       0.000   0.000   0.000  1.00  0.00     0.211 HD
ENDBRANCH  35  40
BRANCH  36  42
ATOM     42  O   UNL     1      -8.405   1.226   0.000  1.00  0.00    -0.388 OA
ATOM     43  H   UNL     1       0.000   0.000   0.000  1.00  0.00     0.211 HD
ENDBRANCH  36  42
ENDBRANCH  30  31
ENDBRANCH   6  30
BRANCH   3  44
ATOM     44  C   UNL     1       1.652   3.844   0.000  1.00  0.00     0.191 C 
BRANCH  44  45
ATOM     45  O   UNL     1       3.098   3.445   0.000  1.00  0.00    -0.394 OA
ATOM     46  H   UNL     1       0.000   0.000   0.000  1.00  0.00     0.210 HD
ENDBRANCH  44  45
ENDBRANCH   3  44
BRANCH   5  47
ATOM     47  O   UNL     1      -3.377   2.535   0.000  1.00  0.00    -0.387 OA
ATOM     48  H   UNL     1       0.000   0.000   0.000  1.00  0.00     0.211 HD
ENDBRANCH   5  47
BRANCH   4  49
ATOM     49  O   UNL     1      -1.240   4.641   0.000  1.00  0.00    -0.388 OA
ATOM     50  H   UNL     1       0.000   0.000   0.000  1.00  0.00     0.211 HD
ENDBRANCH   4  49
TORSDOF 14
