REMARK SMILES C[C@@H](C[C@@H](O)[C@H](O)C(C)(C)O)[C@@H]1CC[C@]2(C)C3=CC[C@H]4C(C)(C)C(=O)CC[C@]4(C)[C@H]3CC[C@@]12C
REMARK SMILES IDX 4 1 3 2 2 3 1 4 12 5 13 6 33 7 14 8 32 9 15 10 31 11 17 12
REMARK SMILES IDX 30 13 18 14 28 15 19 16 27 17 20 18 26 19 21 20 24 21 34 22
REMARK SMILES IDX 16 23 29 24 22 25 23 26 25 27 5 28 6 30 7 31 8 33 9 34 10 35
REMARK SMILES IDX 11 36
REMARK H PARENT 5 29 7 32 11 37
ROOT
ATOM      1  C   UNL     1       5.061  -0.090   0.000  1.00  0.00     0.146 C 
ENDROOT
BRANCH   1   2
ATOM      2  C   UNL     1       3.615   0.308   0.000  1.00  0.00     0.038 C 
BRANCH   2   3
ATOM      3  C   UNL     1       3.236   1.760   0.000  1.00  0.00    -0.008 C 
ATOM      4  C   UNL     1       4.304   2.813   0.000  1.00  0.00     0.008 C 
BRANCH   3   5
ATOM      5  C   UNL     1       1.790   2.158   0.000  1.00  0.00    -0.001 C 
ATOM      6  C   UNL     1       1.262   3.562   0.000  1.00  0.00     0.005 C 
ATOM      7  C   UNL     1       0.618   1.222   0.000  1.00  0.00    -0.020 C 
ATOM      8  C   UNL     1      -0.236   3.494   0.000  1.00  0.00     0.012 C 
ATOM      9  C   UNL     1       0.529  -0.276   0.000  1.00  0.00     0.008 C 
ATOM     10  C   UNL     1      -0.634   2.047   0.000  1.00  0.00    -0.006 C 
ATOM     11  C   UNL     1      -0.812  -0.947   0.000  1.00  0.00     0.009 C 
ATOM     12  C   UNL     1      -1.976   1.376   0.000  1.00  0.00    -0.064 C 
ATOM     13  C   UNL     1      -2.064  -0.122   0.000  1.00  0.00     0.021 C 
ATOM     14  C   UNL     1      -3.228   2.201   0.000  1.00  0.00    -0.027 C 
ATOM     15  C   UNL     1      -3.405  -0.794   0.000  1.00  0.00    -0.022 C 
ATOM     16  C   UNL     1      -4.569   1.529   0.000  1.00  0.00     0.032 C 
ATOM     17  C   UNL     1      -3.494  -2.291   0.000  1.00  0.00     0.015 C 
ATOM     18  C   UNL     1      -4.658   0.032   0.000  1.00  0.00     0.012 C 
ATOM     19  C   UNL     1      -4.835  -2.963   0.000  1.00  0.00     0.077 C 
ATOM     20  C   UNL     1      -5.999  -0.640   0.000  1.00  0.00     0.027 C 
ATOM     21  C   UNL     1      -6.088  -2.137   0.000  1.00  0.00     0.138 C 
ATOM     22  C   UNL     1       1.950   0.532   0.000  1.00  0.00     0.012 C 
ATOM     23  C   UNL     1      -1.794   2.999   0.000  1.00  0.00     0.017 C 
ATOM     24  C   UNL     1      -2.153  -1.619   0.000  1.00  0.00     0.012 C 
ATOM     25  C   UNL     1      -7.489  -0.812   0.000  1.00  0.00     0.020 C 
ATOM     26  C   UNL     1      -6.428   0.798   0.000  1.00  0.00     0.020 C 
ATOM     27  O   UNL     1      -7.429  -2.809   0.000  1.00  0.00    -0.299 OA
ENDBRANCH   3   5
ENDBRANCH   2   3
ENDBRANCH   1   2
BRANCH   1  28
ATOM     28  O   UNL     1       6.129   0.963   0.000  1.00  0.00    -0.390 OA
ATOM     29  H   UNL     1       0.000   0.000   0.000  1.00  0.00     0.211 HD
ENDBRANCH   1  28
BRANCH   1  30
ATOM     30  C   UNL     1       5.439  -1.542   0.000  1.00  0.00     0.174 C 
BRANCH  30  31
ATOM     31  O   UNL     1       4.371  -2.595   0.000  1.00  0.00    -0.387 OA
ATOM     32  H   UNL     1       0.000   0.000   0.000  1.00  0.00     0.211 HD
ENDBRANCH  30  31
BRANCH  30  33
ATOM     33  C   UNL     1       6.885  -1.940   0.000  1.00  0.00     0.087 C 
ATOM     34  C   UNL     1       7.283  -0.493   0.000  1.00  0.00     0.044 C 
ATOM     35  C   UNL     1       6.487  -3.386   0.000  1.00  0.00     0.044 C 
BRANCH  33  36
ATOM     36  O   UNL     1       8.332  -2.338   0.000  1.00  0.00    -0.388 OA
ATOM     37  H   UNL     1       0.000   0.000   0.000  1.00  0.00     0.211 HD
ENDBRANCH  33  36
ENDBRANCH  30  33
ENDBRANCH   1  30
TORSDOF 8
