REMARK SMILES CCCCCCCCCCCCCCCc1cc(O)c(C)c(O)c1
REMARK SMILES IDX 9 1 8 2 7 3 6 4 5 5 4 6 3 7 2 8 1 9 10 10 11 11 12 12 13 13
REMARK SMILES IDX 14 14 15 15 16 16 17 17 24 18 18 19 22 20 20 21 21 22 19 23
REMARK SMILES IDX 23 25
REMARK H PARENT 19 24 23 26
ROOT
ATOM      1  C   UNL     1      -3.361  -0.651   0.000  1.00  0.00     0.000 C 
ENDROOT
BRANCH   1   2
ATOM      2  C   UNL     1      -4.599   0.197   0.000  1.00  0.00     0.000 C 
BRANCH   2   3
ATOM      3  C   UNL     1      -5.952  -0.452   0.000  1.00  0.00    -0.000 C 
BRANCH   3   4
ATOM      4  C   UNL     1      -7.190   0.395   0.000  1.00  0.00    -0.000 C 
BRANCH   4   5
ATOM      5  C   UNL     1      -8.542  -0.253   0.000  1.00  0.00    -0.000 C 
BRANCH   5   6
ATOM      6  C   UNL     1      -9.780   0.594   0.000  1.00  0.00    -0.000 C 
BRANCH   6   7
ATOM      7  C   UNL     1     -11.133  -0.054   0.000  1.00  0.00    -0.000 C 
BRANCH   7   8
ATOM      8  C   UNL     1     -12.371   0.793   0.000  1.00  0.00    -0.003 C 
ATOM      9  C   UNL     1     -13.723   0.145   0.000  1.00  0.00     0.004 C 
ENDBRANCH   7   8
ENDBRANCH   6   7
ENDBRANCH   5   6
ENDBRANCH   4   5
ENDBRANCH   3   4
ENDBRANCH   2   3
ENDBRANCH   1   2
BRANCH   1  10
ATOM     10  C   UNL     1      -2.009  -0.002   0.000  1.00  0.00     0.000 C 
BRANCH  10  11
ATOM     11  C   UNL     1      -0.771  -0.850   0.000  1.00  0.00     0.000 C 
BRANCH  11  12
ATOM     12  C   UNL     1       0.582  -0.201   0.000  1.00  0.00     0.000 C 
BRANCH  12  13
ATOM     13  C   UNL     1       1.819  -1.049   0.000  1.00  0.00     0.000 C 
BRANCH  13  14
ATOM     14  C   UNL     1       3.172  -0.400   0.000  1.00  0.00     0.005 C 
BRANCH  14  15
ATOM     15  C   UNL     1       4.410  -1.248   0.000  1.00  0.00     0.036 C 
BRANCH  15  16
ATOM     16  C   UNL     1       5.763  -0.599   0.000  1.00  0.00    -0.041 A 
ATOM     17  C   UNL     1       5.877   0.896   0.000  1.00  0.00     0.050 A 
ATOM     18  C   UNL     1       7.000  -1.446   0.000  1.00  0.00     0.050 A 
ATOM     19  C   UNL     1       7.230   1.545   0.000  1.00  0.00     0.122 A 
ATOM     20  C   UNL     1       8.353  -0.798   0.000  1.00  0.00     0.122 A 
ATOM     21  C   UNL     1       8.468   0.697   0.000  1.00  0.00     0.033 A 
ATOM     22  C   UNL     1       9.820   1.346   0.000  1.00  0.00     0.052 C 
BRANCH  19  23
ATOM     23  O   UNL     1       7.345   3.040   0.000  1.00  0.00    -0.508 OA
ATOM     24  H   UNL     1       0.000   0.000   0.000  1.00  0.00     0.293 HD
ENDBRANCH  19  23
BRANCH  20  25
ATOM     25  O   UNL     1       9.591  -1.645   0.000  1.00  0.00    -0.508 OA
ATOM     26  H   UNL     1       0.000   0.000   0.000  1.00  0.00     0.293 HD
ENDBRANCH  20  25
ENDBRANCH  15  16
ENDBRANCH  14  15
ENDBRANCH  13  14
ENDBRANCH  12  13
ENDBRANCH  11  12
ENDBRANCH  10  11
ENDBRANCH   1  10
TORSDOF 16
