REMARK SMILES CC1(C)C=Cc2c(ccc3[nH]cc(CCn4c(=O)[nH]c5ccccc5c4=O)c23)O1
REMARK SMILES IDX 14 1 13 2 2 3 4 4 29 5 5 6 7 7 6 8 8 9 28 10 9 11 10 12
REMARK SMILES IDX 11 13 12 14 1 15 3 16 15 18 16 19 17 20 26 21 19 22 25 23
REMARK SMILES IDX 20 24 24 25 21 26 23 27 22 28 18 29 27 30
REMARK H PARENT 11 17 19 31
ROOT
ATOM      1  C   UNL     1       0.057   0.916   0.000  1.00  0.00     0.060 C 
ENDROOT
BRANCH   1   2
ATOM      2  C   UNL     1       1.241   1.837   0.000  1.00  0.00    -0.020 A 
ATOM      3  C   UNL     1       4.646  -2.628   0.000  1.00  0.00     0.122 C 
ATOM      4  C   UNL     1       3.150  -2.520   0.000  1.00  0.00     0.021 C 
ATOM      5  O   UNL     1       5.487  -1.387   0.000  1.00  0.00    -0.483 OA
ATOM      6  C   UNL     1       2.495  -1.171   0.000  1.00  0.00     0.012 C 
ATOM      7  C   UNL     1       4.833  -0.037   0.000  1.00  0.00     0.128 A 
ATOM      8  C   UNL     1       3.337   0.071   0.000  1.00  0.00     0.026 A 
ATOM      9  C   UNL     1       5.674   1.205   0.000  1.00  0.00     0.049 A 
ATOM     10  C   UNL     1       2.682   1.421   0.000  1.00  0.00     0.014 A 
ATOM     11  C   UNL     1       5.020   2.554   0.000  1.00  0.00     0.030 A 
ATOM     12  C   UNL     1       3.524   2.662   0.000  1.00  0.00     0.047 A 
ATOM     13  N   UNL     1       2.603   3.846   0.000  1.00  0.00    -0.361 N 
ATOM     14  C   UNL     1       1.192   3.336   0.000  1.00  0.00     0.087 A 
ATOM     15  C   UNL     1       6.015  -3.241   0.000  1.00  0.00     0.061 C 
ATOM     16  C   UNL     1       4.280  -4.083   0.000  1.00  0.00     0.061 C 
ATOM     17  H   UNL     1       0.000   0.000   0.000  1.00  0.00     0.166 HD
ENDBRANCH   1   2
BRANCH   1  18
ATOM     18  C   UNL     1      -1.332   1.481   0.000  1.00  0.00     0.136 C 
BRANCH  18  19
ATOM     19  N   UNL     1      -2.516   0.560   0.000  1.00  0.00    -0.260 N 
ATOM     20  C   UNL     1      -2.311  -0.925   0.000  1.00  0.00     0.328 A 
ATOM     21  C   UNL     1      -3.906   1.125   0.000  1.00  0.00     0.264 A 
ATOM     22  N   UNL     1      -3.495  -1.846   0.000  1.00  0.00    -0.307 N 
ATOM     23  C   UNL     1      -5.090   0.204   0.000  1.00  0.00     0.064 A 
ATOM     24  C   UNL     1      -4.885  -1.281   0.000  1.00  0.00     0.055 A 
ATOM     25  C   UNL     1      -6.479   0.769   0.000  1.00  0.00     0.016 A 
ATOM     26  C   UNL     1      -6.069  -2.202   0.000  1.00  0.00     0.027 A 
ATOM     27  C   UNL     1      -7.663  -0.151   0.000  1.00  0.00     0.001 A 
ATOM     28  C   UNL     1      -7.458  -1.637   0.000  1.00  0.00     0.002 A 
ATOM     29  O   UNL     1      -0.921  -1.490   0.000  1.00  0.00    -0.248 OA
ATOM     30  O   UNL     1      -4.111   2.611   0.000  1.00  0.00    -0.268 OA
ATOM     31  H   UNL     1       0.000   0.000   0.000  1.00  0.00     0.171 HD
ENDBRANCH  18  19
ENDBRANCH   1  18
TORSDOF 3
