REMARK SMILES C=C(CC/C=C(\C)C=O)[C@H]1CC[C@]2(C)[C@@H]1CC[C@@H]1[C@@]3(C)CCC(=O)C(C)(C)[C@@H]3CC[C@]12C
REMARK SMILES IDX 4 1 3 2 2 3 1 4 10 5 11 6 15 7 12 8 13 9 16 10 31 11 17 12
REMARK SMILES IDX 30 13 18 14 29 15 19 16 28 17 21 18 25 19 22 20 23 21 14 22
REMARK SMILES IDX 32 23 20 24 26 25 27 26 24 27 5 28 6 29 7 30 8 31 9 32
REMARK H PARENT
ROOT
ATOM      1  C   UNL     1       6.025  -0.281   0.000  1.00  0.00     0.032 C 
ENDROOT
BRANCH   1   2
ATOM      2  C   UNL     1       4.757   0.520   0.000  1.00  0.00     0.035 C 
BRANCH   2   3
ATOM      3  C   UNL     1       3.429  -0.177   0.000  1.00  0.00    -0.074 C 
ATOM      4  C   UNL     1       3.369  -1.676   0.000  1.00  0.00     0.008 C 
BRANCH   3   5
ATOM      5  C   UNL     1       2.161   0.624   0.000  1.00  0.00     0.018 C 
ATOM      6  C   UNL     1       2.063   2.121   0.000  1.00  0.00     0.009 C 
ATOM      7  C   UNL     1       0.767   0.069   0.000  1.00  0.00     0.003 C 
ATOM      8  C   UNL     1       0.610   2.491   0.000  1.00  0.00     0.008 C 
ATOM      9  C   UNL     1      -0.191   1.223   0.000  1.00  0.00    -0.023 C 
ATOM     10  C   UNL     1       0.247  -1.338   0.000  1.00  0.00     0.005 C 
ATOM     11  C   UNL     1      -1.670   0.970   0.000  1.00  0.00    -0.024 C 
ATOM     12  C   UNL     1      -1.231  -1.591   0.000  1.00  0.00     0.005 C 
ATOM     13  C   UNL     1      -2.628   2.123   0.000  1.00  0.00     0.008 C 
ATOM     14  C   UNL     1      -2.190  -0.437   0.000  1.00  0.00     0.002 C 
ATOM     15  C   UNL     1      -4.107   1.870   0.000  1.00  0.00     0.006 C 
ATOM     16  C   UNL     1      -3.668  -0.691   0.000  1.00  0.00    -0.025 C 
ATOM     17  C   UNL     1      -4.627   0.463   0.000  1.00  0.00     0.008 C 
ATOM     18  C   UNL     1      -4.188  -2.098   0.000  1.00  0.00     0.015 C 
ATOM     19  C   UNL     1      -6.105   0.210   0.000  1.00  0.00     0.027 C 
ATOM     20  C   UNL     1      -5.667  -2.351   0.000  1.00  0.00     0.077 C 
ATOM     21  C   UNL     1      -6.625  -1.197   0.000  1.00  0.00     0.138 C 
ATOM     22  C   UNL     1      -1.024   2.470   0.000  1.00  0.00     0.012 C 
ATOM     23  C   UNL     1      -0.711  -0.184   0.000  1.00  0.00     0.012 C 
ATOM     24  C   UNL     1      -2.710  -1.844   0.000  1.00  0.00     0.012 C 
ATOM     25  C   UNL     1      -6.098   1.710   0.000  1.00  0.00     0.020 C 
ATOM     26  C   UNL     1      -7.581   0.478   0.000  1.00  0.00     0.020 C 
ATOM     27  O   UNL     1      -8.104  -1.450   0.000  1.00  0.00    -0.299 OA
ENDBRANCH   3   5
ENDBRANCH   2   3
ENDBRANCH   1   2
BRANCH   1  28
ATOM     28  C   UNL     1       7.353   0.417   0.000  1.00  0.00    -0.020 C 
BRANCH  28  29
ATOM     29  C   UNL     1       8.621  -0.385   0.000  1.00  0.00    -0.015 C 
ATOM     30  C   UNL     1       8.561  -1.883   0.000  1.00  0.00     0.047 C 
BRANCH  29  31
ATOM     31  C   UNL     1       9.949   0.313   0.000  1.00  0.00     0.254 C 
ATOM     32  O   UNL     1      11.217  -0.488   0.000  1.00  0.00    -0.298 OA
ENDBRANCH  29  31
ENDBRANCH  28  29
ENDBRANCH   1  28
TORSDOF 6
