REMARK SMILES C=C1c2[nH]c3ccccc3c2[C@@H]2[C@H](CC)[C@@H]1CCN2C
REMARK SMILES IDX 1 1 2 2 3 3 11 4 10 5 9 6 8 7 7 8 6 9 5 10 4 11 12 12 13 13
REMARK SMILES IDX 16 14 17 15 18 16 19 17 20 18 14 20 15 21
REMARK H PARENT 4 19
ROOT
ATOM      1  C   UNL     1      -0.804   3.664   0.000  1.00  0.00     0.015 C 
ATOM      2  C   UNL     1      -0.756   2.165   0.000  1.00  0.00    -0.028 C 
ATOM      3  C   UNL     1       0.566   1.457   0.000  1.00  0.00     0.047 A 
ATOM      4  C   UNL     1       0.614  -0.043   0.000  1.00  0.00     0.003 A 
ATOM      5  C   UNL     1       2.054  -0.461   0.000  1.00  0.00     0.005 A 
ATOM      6  C   UNL     1       2.708  -1.811   0.000  1.00  0.00     0.011 A 
ATOM      7  C   UNL     1       4.204  -1.920   0.000  1.00  0.00     0.001 A 
ATOM      8  C   UNL     1       5.046  -0.679   0.000  1.00  0.00     0.002 A 
ATOM      9  C   UNL     1       4.393   0.671   0.000  1.00  0.00     0.027 A 
ATOM     10  C   UNL     1       2.897   0.780   0.000  1.00  0.00     0.046 A 
ATOM     11  N   UNL     1       1.977   1.965   0.000  1.00  0.00    -0.355 N 
ATOM     12  C   UNL     1      -0.661  -0.834   0.000  1.00  0.00     0.093 C 
ATOM     13  C   UNL     1      -1.983  -0.125   0.000  1.00  0.00     0.018 C 
ATOM     14  C   UNL     1      -2.031   1.374   0.000  1.00  0.00     0.027 C 
ATOM     15  C   UNL     1      -3.305   0.583   0.000  1.00  0.00     0.024 C 
ATOM     16  C   UNL     1      -3.258  -0.916   0.000  1.00  0.00     0.085 C 
ATOM     17  N   UNL     1      -1.935  -1.624   0.000  1.00  0.00    -0.299 NA
ATOM     18  C   UNL     1      -1.888  -3.124   0.000  1.00  0.00     0.106 C 
ATOM     19  H   UNL     1       0.000   0.000   0.000  1.00  0.00     0.167 HD
ENDROOT
BRANCH  13  20
ATOM     20  C   UNL     1      -3.258  -0.916   0.000  1.00  0.00     0.003 C 
ATOM     21  C   UNL     1      -4.580  -0.208   0.000  1.00  0.00     0.004 C 
ENDBRANCH  13  20
TORSDOF 1
