REMARK SMILES C/C=C/c1cc(OC)c2c(c1)[C@@H](C)[C@H](c1ccc3c(c1)OCO3)O2
REMARK SMILES IDX 4 1 5 2 6 3 9 4 24 5 14 6 12 7 13 8 10 9 11 10 3 11 2 12
REMARK SMILES IDX 1 13 7 14 8 15 15 16 16 17 20 18 17 19 19 20 18 21 21 22
REMARK SMILES IDX 23 23 22 24
REMARK H PARENT
ROOT
ATOM      1  C   UNL     1      -4.133  -0.645   0.000  1.00  0.00    -0.022 A 
ATOM      2  C   UNL     1      -4.020   0.851   0.000  1.00  0.00     0.058 A 
ATOM      3  C   UNL     1      -2.668   1.501   0.000  1.00  0.00     0.161 A 
ATOM      4  C   UNL     1      -1.429   0.655   0.000  1.00  0.00     0.165 A 
ATOM      5  O   UNL     1       0.028   1.011   0.000  1.00  0.00    -0.481 OA
ATOM      6  C   UNL     1       0.816  -0.266   0.000  1.00  0.00     0.211 C 
ATOM      7  C   UNL     1      -0.154  -1.410   0.000  1.00  0.00     0.066 C 
ATOM      8  C   UNL     1       0.201  -2.867   0.000  1.00  0.00     0.017 C 
ATOM      9  C   UNL     1      -1.542  -0.840   0.000  1.00  0.00     0.005 A 
ATOM     10  C   UNL     1      -2.894  -1.491   0.000  1.00  0.00     0.016 A 
ENDROOT
BRANCH   1  11
ATOM     11  C   UNL     1      -5.484  -1.296   0.000  1.00  0.00     0.003 C 
BRANCH  11  12
ATOM     12  C   UNL     1      -6.724  -0.450   0.000  1.00  0.00    -0.030 C 
ATOM     13  C   UNL     1      -8.075  -1.100   0.000  1.00  0.00     0.035 C 
ENDBRANCH  11  12
ENDBRANCH   1  11
BRANCH   3  14
ATOM     14  O   UNL     1      -2.556   2.997   0.000  1.00  0.00    -0.493 OA
ATOM     15  C   UNL     1      -3.795   3.842   0.000  1.00  0.00     0.278 C 
ENDBRANCH   3  14
BRANCH   6  16
ATOM     16  C   UNL     1       2.312  -0.378   0.000  1.00  0.00    -0.003 A 
ATOM     17  C   UNL     1       2.962  -1.730   0.000  1.00  0.00     0.011 A 
ATOM     18  C   UNL     1       3.157   0.861   0.000  1.00  0.00     0.058 A 
ATOM     19  C   UNL     1       4.458  -1.843   0.000  1.00  0.00     0.051 A 
ATOM     20  C   UNL     1       4.653   0.748   0.000  1.00  0.00     0.166 A 
ATOM     21  C   UNL     1       5.303  -0.604   0.000  1.00  0.00     0.165 A 
ATOM     22  O   UNL     1       5.737   1.784   0.000  1.00  0.00    -0.454 OA
ATOM     23  O   UNL     1       6.790  -0.403   0.000  1.00  0.00    -0.454 OA
ATOM     24  C   UNL     1       7.058   1.073   0.000  1.00  0.00     0.468 C 
ENDBRANCH   6  16
TORSDOF 4
