REMARK SMILES C[C@@H]1O[C@@H](O[C@@H]2[C@@H](O)[C@H](OCCc3ccc(O)c(O)c3)O[C@H](CO)[C@H]2OC(=O)/C=C/c2ccc(O)c(O)c2)[C@H](O)[C@H](O)[C@H]1O
REMARK SMILES IDX 6 1 7 2 9 3 21 4 22 5 25 6 5 7 4 8 2 9 3 10 43 11 41 12
REMARK SMILES IDX 39 13 1 14 44 15 42 17 40 19 8 21 26 23 27 24 28 25 29 26
REMARK SMILES IDX 30 27 31 28 32 29 38 30 33 31 36 32 34 33 37 34 35 36 10 38
REMARK SMILES IDX 11 39 12 40 13 41 14 42 20 43 15 44 18 45 16 46 19 47 17 49
REMARK SMILES IDX 23 51 24 52
REMARK H PARENT 44 16 42 18 40 20 8 22 37 35 35 37 19 48 17 50 24 53
ROOT
ATOM      1  C   UNL     1      -0.621   2.359   0.000  1.00  0.00     0.199 C 
ATOM      2  C   UNL     1      -2.082   2.700   0.000  1.00  0.00     0.203 C 
ATOM      3  C   UNL     1      -3.108   1.606   0.000  1.00  0.00     0.282 C 
ATOM      4  O   UNL     1      -2.674   0.171   0.000  1.00  0.00    -0.340 OA
ATOM      5  C   UNL     1      -1.213  -0.171   0.000  1.00  0.00     0.190 C 
ATOM      6  C   UNL     1      -0.187   0.923   0.000  1.00  0.00     0.240 C 
ENDROOT
BRANCH   1   7
ATOM      7  O   UNL     1       0.405   3.453   0.000  1.00  0.00    -0.340 OA
BRANCH   7   8
ATOM      8  C   UNL     1       1.865   3.111   0.000  1.00  0.00     0.282 C 
ATOM      9  C   UNL     1       3.760   1.334   0.000  1.00  0.00     0.150 C 
ATOM     10  O   UNL     1       2.300   1.675   0.000  1.00  0.00    -0.344 OA
ATOM     11  C   UNL     1       4.787   2.428   0.000  1.00  0.00     0.174 C 
ATOM     12  C   UNL     1       4.352   3.864   0.000  1.00  0.00     0.179 C 
ATOM     13  C   UNL     1       2.892   4.205   0.000  1.00  0.00     0.202 C 
ATOM     14  C   UNL     1       4.195  -0.102   0.000  1.00  0.00     0.041 C 
BRANCH  11  15
ATOM     15  O   UNL     1       6.247   2.086   0.000  1.00  0.00    -0.388 OA
ATOM     16  H   UNL     1       0.000   0.000   0.000  1.00  0.00     0.211 HD
ENDBRANCH  11  15
BRANCH  12  17
ATOM     17  O   UNL     1       5.378   4.958   0.000  1.00  0.00    -0.387 OA
ATOM     18  H   UNL     1       0.000   0.000   0.000  1.00  0.00     0.211 HD
ENDBRANCH  12  17
BRANCH  13  19
ATOM     19  O   UNL     1       2.457   5.641   0.000  1.00  0.00    -0.385 OA
ATOM     20  H   UNL     1       0.000   0.000   0.000  1.00  0.00     0.211 HD
ENDBRANCH  13  19
ENDBRANCH   7   8
ENDBRANCH   1   7
BRANCH   2  21
ATOM     21  O   UNL     1      -2.516   4.136   0.000  1.00  0.00    -0.385 OA
ATOM     22  H   UNL     1       0.000   0.000   0.000  1.00  0.00     0.211 HD
ENDBRANCH   2  21
BRANCH   6  23
ATOM     23  O   UNL     1       1.274   0.581   0.000  1.00  0.00    -0.453 OA
BRANCH  23  24
ATOM     24  C   UNL     1       1.708  -0.854   0.000  1.00  0.00     0.331 C 
ATOM     25  O   UNL     1       0.682  -1.948   0.000  1.00  0.00    -0.247 OA
BRANCH  24  26
ATOM     26  C   UNL     1       3.169  -1.196   0.000  1.00  0.00     0.094 C 
BRANCH  26  27
ATOM     27  C   UNL     1       3.603  -2.632   0.000  1.00  0.00     0.016 C 
BRANCH  27  28
ATOM     28  C   UNL     1       5.064  -2.973   0.000  1.00  0.00    -0.021 A 
ATOM     29  C   UNL     1       5.498  -4.409   0.000  1.00  0.00     0.012 A 
ATOM     30  C   UNL     1       6.090  -1.879   0.000  1.00  0.00     0.058 A 
ATOM     31  C   UNL     1       6.959  -4.750   0.000  1.00  0.00     0.051 A 
ATOM     32  C   UNL     1       7.551  -2.221   0.000  1.00  0.00     0.157 A 
ATOM     33  C   UNL     1       7.985  -3.656   0.000  1.00  0.00     0.157 A 
BRANCH  32  34
ATOM     34  O   UNL     1       8.577  -1.127   0.000  1.00  0.00    -0.504 OA
ATOM     35  H   UNL     1       0.000   0.000   0.000  1.00  0.00     0.293 HD
ENDBRANCH  32  34
BRANCH  33  36
ATOM     36  O   UNL     1       9.446  -3.998   0.000  1.00  0.00    -0.504 OA
ATOM     37  H   UNL     1       0.000   0.000   0.000  1.00  0.00     0.293 HD
ENDBRANCH  33  36
ENDBRANCH  27  28
ENDBRANCH  26  27
ENDBRANCH  24  26
ENDBRANCH  23  24
ENDBRANCH   6  23
BRANCH   3  38
ATOM     38  O   UNL     1      -4.569   1.948   0.000  1.00  0.00    -0.350 OA
BRANCH  38  39
ATOM     39  C   UNL     1      -5.595   0.854   0.000  1.00  0.00     0.168 C 
BRANCH  39  40
ATOM     40  C   UNL     1      -7.055   1.195   0.000  1.00  0.00     0.064 C 
BRANCH  40  41
ATOM     41  C   UNL     1      -8.081   0.101   0.000  1.00  0.00    -0.042 A 
ATOM     42  C   UNL     1      -9.542   0.443   0.000  1.00  0.00     0.008 A 
ATOM     43  C   UNL     1      -7.647  -1.335   0.000  1.00  0.00     0.054 A 
ATOM     44  C   UNL     1     -10.568  -0.651   0.000  1.00  0.00     0.050 A 
ATOM     45  C   UNL     1      -8.673  -2.429   0.000  1.00  0.00     0.157 A 
ATOM     46  C   UNL     1     -10.134  -2.087   0.000  1.00  0.00     0.157 A 
BRANCH  45  47
ATOM     47  O   UNL     1      -8.239  -3.864   0.000  1.00  0.00    -0.504 OA
ATOM     48  H   UNL     1       0.000   0.000   0.000  1.00  0.00     0.293 HD
ENDBRANCH  45  47
BRANCH  46  49
ATOM     49  O   UNL     1     -11.160  -3.181   0.000  1.00  0.00    -0.504 OA
ATOM     50  H   UNL     1       0.000   0.000   0.000  1.00  0.00     0.293 HD
ENDBRANCH  46  49
ENDBRANCH  40  41
ENDBRANCH  39  40
ENDBRANCH  38  39
ENDBRANCH   3  38
BRANCH   5  51
ATOM     51  C   UNL     1      -0.778  -1.607   0.000  1.00  0.00     0.192 C 
BRANCH  51  52
ATOM     52  O   UNL     1      -1.804  -2.701   0.000  1.00  0.00    -0.394 OA
ATOM     53  H   UNL     1       0.000   0.000   0.000  1.00  0.00     0.210 HD
ENDBRANCH  51  52
ENDBRANCH   5  51
TORSDOF 21
