REMARK SMILES C=C[C@H](C1=CC(=O)C(OC)=CC1=O)c1ccccc1
REMARK SMILES IDX 4 1 5 2 6 3 7 4 8 5 11 6 12 7 13 8 3 9 2 10 1 11 14 12 15 13
REMARK SMILES IDX 19 14 16 15 18 16 17 17 9 18 10 19
REMARK H PARENT
ROOT
ATOM      1  C   UNL     1       0.350   0.695   0.000  1.00  0.00     0.015 C 
ATOM      2  C   UNL     1       0.813  -0.732   0.000  1.00  0.00     0.064 C 
ATOM      3  C   UNL     1       2.280  -1.044   0.000  1.00  0.00     0.220 C 
ATOM      4  O   UNL     1       2.743  -2.471   0.000  1.00  0.00    -0.286 OA
ATOM      5  C   UNL     1       3.284   0.070   0.000  1.00  0.00     0.169 C 
ATOM      6  C   UNL     1       2.821   1.497   0.000  1.00  0.00     0.102 C 
ATOM      7  C   UNL     1       1.353   1.809   0.000  1.00  0.00     0.186 C 
ATOM      8  O   UNL     1       0.890   3.236   0.000  1.00  0.00    -0.289 OA
ENDROOT
BRANCH   1   9
ATOM      9  C   UNL     1      -1.118   1.007   0.000  1.00  0.00     0.075 C 
BRANCH   9  10
ATOM     10  C   UNL     1      -1.581   2.433   0.000  1.00  0.00    -0.022 C 
ATOM     11  C   UNL     1      -3.048   2.746   0.000  1.00  0.00     0.005 C 
ENDBRANCH   9  10
BRANCH   9  12
ATOM     12  C   UNL     1      -2.122  -0.108   0.000  1.00  0.00    -0.037 A 
ATOM     13  C   UNL     1      -3.589   0.204   0.000  1.00  0.00     0.004 A 
ATOM     14  C   UNL     1      -1.658  -1.534   0.000  1.00  0.00     0.004 A 
ATOM     15  C   UNL     1      -4.593  -0.910   0.000  1.00  0.00     0.000 A 
ATOM     16  C   UNL     1      -2.662  -2.649   0.000  1.00  0.00     0.000 A 
ATOM     17  C   UNL     1      -4.129  -2.337   0.000  1.00  0.00     0.000 A 
ENDBRANCH   9  12
ENDBRANCH   1   9
BRANCH   5  18
ATOM     18  O   UNL     1       4.751  -0.242   0.000  1.00  0.00    -0.493 OA
ATOM     19  C   UNL     1       5.214  -1.669   0.000  1.00  0.00     0.278 C 
ENDBRANCH   5  18
TORSDOF 4
