REMARK SMILES COc1c(C(C)C)cc2c(c1OC)[C@@]1(CO)CCCC(C)(C)C1CC2
REMARK SMILES IDX 3 1 4 2 8 3 9 4 25 5 24 6 23 7 20 8 21 9 22 10 19 11 18 12
REMARK SMILES IDX 17 13 14 14 10 15 11 16 2 17 1 18 5 19 6 20 7 21 12 22 13 23
REMARK SMILES IDX 15 24 16 25
REMARK H PARENT 16 26
ROOT
ATOM      1  C   UNL     1      -2.456   0.363   0.000  1.00  0.00     0.164 A 
ATOM      2  C   UNL     1      -2.826  -1.091   0.000  1.00  0.00     0.001 A 
ATOM      3  C   UNL     1      -1.752  -2.138   0.000  1.00  0.00     0.012 A 
ATOM      4  C   UNL     1      -0.308  -1.732   0.000  1.00  0.00    -0.040 A 
ATOM      5  C   UNL     1       0.766  -2.779   0.000  1.00  0.00     0.036 C 
ATOM      6  C   UNL     1       2.209  -2.372   0.000  1.00  0.00     0.010 C 
ATOM      7  C   UNL     1       2.579  -0.919   0.000  1.00  0.00     0.008 C 
ATOM      8  C   UNL     1       4.023  -0.512   0.000  1.00  0.00    -0.032 C 
ATOM      9  C   UNL     1       5.519  -0.624   0.000  1.00  0.00     0.011 C 
ATOM     10  C   UNL     1       4.173  -2.005   0.000  1.00  0.00     0.011 C 
ATOM     11  C   UNL     1       4.393   0.942   0.000  1.00  0.00     0.007 C 
ATOM     12  C   UNL     1       3.319   1.989   0.000  1.00  0.00     0.002 C 
ATOM     13  C   UNL     1       1.875   1.582   0.000  1.00  0.00     0.014 C 
ATOM     14  C   UNL     1       1.506   0.129   0.000  1.00  0.00     0.026 C 
ATOM     15  C   UNL     1       0.062  -0.278   0.000  1.00  0.00     0.010 A 
ATOM     16  C   UNL     1      -1.012   0.769   0.000  1.00  0.00     0.165 A 
ENDROOT
BRANCH   1  17
ATOM     17  O   UNL     1      -3.530   1.410   0.000  1.00  0.00    -0.493 OA
ATOM     18  C   UNL     1      -3.160   2.864   0.000  1.00  0.00     0.278 C 
ENDBRANCH   1  17
BRANCH   2  19
ATOM     19  C   UNL     1      -4.270  -1.497   0.000  1.00  0.00     0.017 C 
ATOM     20  C   UNL     1      -5.344  -0.450   0.000  1.00  0.00     0.012 C 
ATOM     21  C   UNL     1      -4.640  -2.951   0.000  1.00  0.00     0.012 C 
ENDBRANCH   2  19
BRANCH  16  22
ATOM     22  O   UNL     1      -0.642   2.223   0.000  1.00  0.00    -0.493 OA
ATOM     23  C   UNL     1      -1.716   3.270   0.000  1.00  0.00     0.278 C 
ENDBRANCH  16  22
BRANCH  14  24
ATOM     24  C   UNL     1       0.432   1.176   0.000  1.00  0.00     0.168 C 
BRANCH  24  25
ATOM     25  O   UNL     1       0.801   2.630   0.000  1.00  0.00    -0.395 OA
ATOM     26  H   UNL     1       0.000   0.000   0.000  1.00  0.00     0.210 HD
ENDBRANCH  24  25
ENDBRANCH  14  24
TORSDOF 5
