REMARK SMILES Cn1c2occc2c(=O)c2ccc3c(c21)C=CC(C)(C)O3
REMARK SMILES IDX 1 1 2 2 3 3 7 4 6 5 5 6 4 7 8 8 9 9 10 10 11 11 12 12 13 13
REMARK SMILES IDX 21 14 18 15 19 16 20 17 17 18 16 19 14 20 15 21
REMARK H PARENT
ROOT
ATOM      1  C   UNL     1      -0.533   2.594   0.000  1.00  0.00     0.153 C 
ATOM      2  N   UNL     1      -1.168   1.235   0.000  1.00  0.00    -0.313 N 
ATOM      3  C   UNL     1      -2.663   1.105   0.000  1.00  0.00     0.210 A 
ATOM      4  C   UNL     1      -3.298  -0.254   0.000  1.00  0.00     0.086 A 
ATOM      5  C   UNL     1      -4.786  -0.070   0.000  1.00  0.00     0.056 A 
ATOM      6  C   UNL     1      -5.071   1.403   0.000  1.00  0.00     0.198 A 
ATOM      7  O   UNL     1      -3.759   2.129   0.000  1.00  0.00    -0.448 OA
ATOM      8  C   UNL     1      -2.438  -1.483   0.000  1.00  0.00     0.200 A 
ATOM      9  O   UNL     1      -3.074  -2.842   0.000  1.00  0.00    -0.288 OA
ATOM     10  C   UNL     1      -0.944  -1.354   0.000  1.00  0.00     0.047 A 
ATOM     11  C   UNL     1      -0.085  -2.583   0.000  1.00  0.00     0.018 A 
ATOM     12  C   UNL     1       1.410  -2.454   0.000  1.00  0.00     0.048 A 
ATOM     13  C   UNL     1       2.045  -1.095   0.000  1.00  0.00     0.129 A 
ATOM     14  O   UNL     1       3.539  -0.965   0.000  1.00  0.00    -0.483 OA
ATOM     15  C   UNL     1       4.174   0.394   0.000  1.00  0.00     0.122 C 
ATOM     16  C   UNL     1       5.236   1.453   0.000  1.00  0.00     0.061 C 
ATOM     17  C   UNL     1       5.402  -0.468   0.000  1.00  0.00     0.061 C 
ATOM     18  C   UNL     1       3.315   1.623   0.000  1.00  0.00     0.021 C 
ATOM     19  C   UNL     1       1.821   1.494   0.000  1.00  0.00     0.014 C 
ATOM     20  C   UNL     1       1.185   0.135   0.000  1.00  0.00     0.041 A 
ATOM     21  C   UNL     1      -0.309   0.005   0.000  1.00  0.00     0.066 A 
ENDROOT
TORSDOF 0
