REMARK SMILES COc1c2c(nc3occc13)[C@@](/C=C/C(C)(C)O)(OC)[C@H](OC(C)=O)CC2
REMARK SMILES IDX 13 1 12 2 3 3 4 4 11 5 27 6 5 7 7 8 10 9 26 10 6 11 8 12
REMARK SMILES IDX 9 13 21 14 2 15 1 16 19 17 20 18 22 19 23 20 24 21 25 22
REMARK SMILES IDX 14 23 15 24 16 25 17 26 18 27
REMARK H PARENT 18 28
ROOT
ATOM      1  C   UNL     1       0.583   1.425   0.000  1.00  0.00     0.017 C 
ENDROOT
BRANCH   1   2
ATOM      2  C   UNL     1       1.018  -0.011   0.000  1.00  0.00     0.165 C 
ATOM      3  C   UNL     1      -2.550  -1.749   0.000  1.00  0.00     0.136 A 
ATOM      4  C   UNL     1      -1.061  -1.569   0.000  1.00  0.00     0.020 A 
ATOM      5  C   UNL     1      -3.450  -0.548   0.000  1.00  0.00     0.083 A 
ATOM      6  C   UNL     1      -0.161  -2.770   0.000  1.00  0.00     0.045 C 
ATOM      7  C   UNL     1      -0.471  -0.190   0.000  1.00  0.00     0.091 A 
ATOM      8  C   UNL     1      -2.861   0.831   0.000  1.00  0.00     0.229 A 
ATOM      9  C   UNL     1      -4.944  -0.414   0.000  1.00  0.00     0.056 A 
ATOM     10  C   UNL     1       1.328  -2.591   0.000  1.00  0.00     0.054 C 
ATOM     11  N   UNL     1      -1.371   1.010   0.000  1.00  0.00    -0.214 NA
ATOM     12  O   UNL     1      -3.990   1.818   0.000  1.00  0.00    -0.446 OA
ATOM     13  C   UNL     1      -5.278   1.048   0.000  1.00  0.00     0.198 A 
ATOM     14  C   UNL     1       1.917  -1.211   0.000  1.00  0.00     0.219 C 
BRANCH   3  15
ATOM     15  O   UNL     1      -3.140  -3.128   0.000  1.00  0.00    -0.496 OA
ATOM     16  C   UNL     1      -4.629  -3.307   0.000  1.00  0.00     0.278 C 
ENDBRANCH   3  15
BRANCH   2  17
ATOM     17  O   UNL     1       2.356   0.667   0.000  1.00  0.00    -0.364 OA
ATOM     18  C   UNL     1       3.612  -0.153   0.000  1.00  0.00     0.197 C 
ENDBRANCH   2  17
BRANCH  14  19
ATOM     19  O   UNL     1       3.407  -1.032   0.000  1.00  0.00    -0.459 OA
BRANCH  19  20
ATOM     20  C   UNL     1       4.306  -2.232   0.000  1.00  0.00     0.303 C 
ATOM     21  C   UNL     1       5.796  -2.053   0.000  1.00  0.00     0.139 C 
ATOM     22  O   UNL     1       3.717  -3.612   0.000  1.00  0.00    -0.253 OA
ENDBRANCH  19  20
ENDBRANCH  14  19
ENDBRANCH   1   2
BRANCH   1  23
ATOM     23  C   UNL     1       1.609   2.519   0.000  1.00  0.00     0.006 C 
BRANCH  23  24
ATOM     24  C   UNL     1       1.173   3.954   0.000  1.00  0.00     0.077 C 
ATOM     25  C   UNL     1      -0.262   3.519   0.000  1.00  0.00     0.046 C 
ATOM     26  C   UNL     1       2.609   4.389   0.000  1.00  0.00     0.046 C 
BRANCH  24  27
ATOM     27  O   UNL     1       0.739   5.390   0.000  1.00  0.00    -0.386 OA
ATOM     28  H   UNL     1       0.000   0.000   0.000  1.00  0.00     0.211 HD
ENDBRANCH  24  27
ENDBRANCH  23  24
ENDBRANCH   1  23
TORSDOF 8
