REMARK SMILES Cc1cc(O)c2c(c1)C(=O)c1ccccc1C2=O
REMARK SMILES IDX 1 1 2 2 3 3 4 4 6 5 17 6 18 7 16 8 15 9 14 10 13 11 12 12
REMARK SMILES IDX 11 13 9 14 10 15 7 16 8 17 5 18
REMARK H PARENT 5 19
ROOT
ATOM      1  C   UNL     1      -4.776   1.544   0.000  1.00  0.00     0.044 C 
ATOM      2  C   UNL     1      -3.471   0.804   0.000  1.00  0.00    -0.047 A 
ATOM      3  C   UNL     1      -3.458  -0.696   0.000  1.00  0.00     0.050 A 
ATOM      4  C   UNL     1      -2.153  -1.435   0.000  1.00  0.00     0.127 A 
ATOM      5  C   UNL     1      -0.860  -0.674   0.000  1.00  0.00     0.075 A 
ATOM      6  C   UNL     1       0.445  -1.413   0.000  1.00  0.00     0.198 C 
ATOM      7  O   UNL     1       0.457  -2.913   0.000  1.00  0.00    -0.288 OA
ATOM      8  C   UNL     1       1.738  -0.652   0.000  1.00  0.00     0.034 A 
ATOM      9  C   UNL     1       3.043  -1.391   0.000  1.00  0.00     0.013 A 
ATOM     10  C   UNL     1       4.335  -0.630   0.000  1.00  0.00     0.001 A 
ATOM     11  C   UNL     1       4.323   0.870   0.000  1.00  0.00     0.001 A 
ATOM     12  C   UNL     1       3.018   1.609   0.000  1.00  0.00     0.013 A 
ATOM     13  C   UNL     1       1.725   0.848   0.000  1.00  0.00     0.034 A 
ATOM     14  C   UNL     1       0.420   1.587   0.000  1.00  0.00     0.194 C 
ATOM     15  O   UNL     1       0.407   3.087   0.000  1.00  0.00    -0.289 OA
ATOM     16  C   UNL     1      -0.873   0.826   0.000  1.00  0.00     0.038 A 
ATOM     17  C   UNL     1      -2.178   1.565   0.000  1.00  0.00     0.016 A 
ENDROOT
BRANCH   4  18
ATOM     18  O   UNL     1      -2.141  -2.935   0.000  1.00  0.00    -0.507 OA
ATOM     19  H   UNL     1       0.000   0.000   0.000  1.00  0.00     0.293 HD
ENDBRANCH   4  18
TORSDOF 1
