REMARK SMILES COc1cc(-c2oc3cc(O)cc(O)c3c(=O)c2O)ccc1O
REMARK SMILES IDX 6 1 18 2 16 3 17 4 15 5 13 6 12 7 10 8 9 9 8 10 7 11 5 12
REMARK SMILES IDX 3 13 4 14 22 15 21 16 20 17 2 18 1 19 23 20 19 22 14 24
REMARK SMILES IDX 11 26
REMARK H PARENT 23 21 19 23 14 25 11 27
ROOT
ATOM      1  C   UNL     1      -0.331  -0.448   0.000  1.00  0.00     0.180 A 
ATOM      2  C   UNL     1       0.404  -1.756   0.000  1.00  0.00     0.208 A 
ATOM      3  C   UNL     1       1.904  -1.773   0.000  1.00  0.00     0.238 A 
ATOM      4  O   UNL     1       2.639  -3.080   0.000  1.00  0.00    -0.285 OA
ATOM      5  C   UNL     1       2.668  -0.482   0.000  1.00  0.00     0.111 A 
ATOM      6  C   UNL     1       4.168  -0.500   0.000  1.00  0.00     0.134 A 
ATOM      7  C   UNL     1       4.933   0.791   0.000  1.00  0.00     0.093 A 
ATOM      8  C   UNL     1       4.198   2.098   0.000  1.00  0.00     0.123 A 
ATOM      9  C   UNL     1       2.698   2.115   0.000  1.00  0.00     0.094 A 
ATOM     10  C   UNL     1       1.933   0.825   0.000  1.00  0.00     0.146 A 
ATOM     11  O   UNL     1       0.434   0.842   0.000  1.00  0.00    -0.452 OA
ENDROOT
BRANCH   1  12
ATOM     12  C   UNL     1      -1.831  -0.431   0.000  1.00  0.00     0.025 A 
ATOM     13  C   UNL     1      -4.066   0.894   0.000  1.00  0.00     0.161 A 
ATOM     14  C   UNL     1      -2.566   0.877   0.000  1.00  0.00     0.062 A 
ATOM     15  C   UNL     1      -4.831  -0.396   0.000  1.00  0.00     0.157 A 
ATOM     16  C   UNL     1      -4.096  -1.704   0.000  1.00  0.00     0.051 A 
ATOM     17  C   UNL     1      -2.596  -1.721   0.000  1.00  0.00     0.016 A 
BRANCH  13  18
ATOM     18  O   UNL     1      -4.801   2.202   0.000  1.00  0.00    -0.493 OA
ATOM     19  C   UNL     1      -4.036   3.492   0.000  1.00  0.00     0.278 C 
ENDBRANCH  13  18
BRANCH  15  20
ATOM     20  O   UNL     1      -6.331  -0.379   0.000  1.00  0.00    -0.504 OA
ATOM     21  H   UNL     1       0.000   0.000   0.000  1.00  0.00     0.293 HD
ENDBRANCH  15  20
ENDBRANCH   1  12
BRANCH   2  22
ATOM     22  O   UNL     1      -0.361  -3.046   0.000  1.00  0.00    -0.502 OA
ATOM     23  H   UNL     1       0.000   0.000   0.000  1.00  0.00     0.293 HD
ENDBRANCH   2  22
BRANCH   6  24
ATOM     24  O   UNL     1       4.904  -1.807   0.000  1.00  0.00    -0.507 OA
ATOM     25  H   UNL     1       0.000   0.000   0.000  1.00  0.00     0.293 HD
ENDBRANCH   6  24
BRANCH   8  26
ATOM     26  O   UNL     1       4.963   3.389   0.000  1.00  0.00    -0.508 OA
ATOM     27  H   UNL     1       0.000   0.000   0.000  1.00  0.00     0.293 HD
ENDBRANCH   8  26
TORSDOF 6
