REMARK SMILES COc1c(O)c(CC=C(C)C)c(O)c2c(=O)c3c(CC=C(C)C)ccc(O)c3n(C)c12
REMARK SMILES IDX 3 1 4 2 6 3 12 4 14 5 31 6 29 7 30 8 28 9 26 10 25 11 24 12
REMARK SMILES IDX 18 13 17 14 15 15 16 16 2 17 1 18 5 19 7 21 8 22 9 23 10 24
REMARK SMILES IDX 11 25 13 26 27 28 19 30 20 31 21 32 22 33 23 34
REMARK H PARENT 5 20 13 27 27 29
ROOT
ATOM      1  C   UNL     1      -2.130  -2.272   0.000  1.00  0.00     0.185 A 
ATOM      2  C   UNL     1      -3.315  -1.353   0.000  1.00  0.00     0.167 A 
ATOM      3  C   UNL     1      -3.112   0.133   0.000  1.00  0.00     0.044 A 
ATOM      4  C   UNL     1      -1.723   0.700   0.000  1.00  0.00     0.136 A 
ATOM      5  C   UNL     1      -0.538  -0.219   0.000  1.00  0.00     0.092 A 
ATOM      6  C   UNL     1      -0.741  -1.706   0.000  1.00  0.00     0.103 A 
ATOM      7  N   UNL     1       0.444  -2.625   0.000  1.00  0.00    -0.337 N 
ATOM      8  C   UNL     1       0.241  -4.111   0.000  1.00  0.00     0.150 C 
ATOM      9  C   UNL     1       1.833  -2.058   0.000  1.00  0.00     0.095 A 
ATOM     10  C   UNL     1       3.018  -2.977   0.000  1.00  0.00     0.140 A 
ATOM     11  C   UNL     1       4.407  -2.410   0.000  1.00  0.00     0.049 A 
ATOM     12  C   UNL     1       4.611  -0.924   0.000  1.00  0.00     0.009 A 
ATOM     13  C   UNL     1       3.425  -0.005   0.000  1.00  0.00    -0.031 A 
ATOM     14  C   UNL     1       2.037  -0.572   0.000  1.00  0.00     0.054 A 
ATOM     15  C   UNL     1       0.851   0.347   0.000  1.00  0.00     0.201 A 
ATOM     16  O   UNL     1       1.055   1.833   0.000  1.00  0.00    -0.288 OA
ENDROOT
BRANCH   1  17
ATOM     17  O   UNL     1      -2.333  -3.759   0.000  1.00  0.00    -0.491 OA
ATOM     18  C   UNL     1      -3.722  -4.325   0.000  1.00  0.00     0.278 C 
ENDBRANCH   1  17
BRANCH   2  19
ATOM     19  O   UNL     1      -4.704  -1.920   0.000  1.00  0.00    -0.504 OA
ATOM     20  H   UNL     1       0.000   0.000   0.000  1.00  0.00     0.293 HD
ENDBRANCH   2  19
BRANCH   3  21
ATOM     21  C   UNL     1      -4.297   1.052   0.000  1.00  0.00     0.070 C 
BRANCH  21  22
ATOM     22  C   UNL     1      -4.093   2.538   0.000  1.00  0.00    -0.023 C 
BRANCH  22  23
ATOM     23  C   UNL     1      -5.279   3.458   0.000  1.00  0.00    -0.080 C 
ATOM     24  C   UNL     1      -5.075   4.944   0.000  1.00  0.00     0.039 C 
ATOM     25  C   UNL     1      -6.668   2.891   0.000  1.00  0.00     0.039 C 
ENDBRANCH  22  23
ENDBRANCH  21  22
ENDBRANCH   3  21
BRANCH   4  26
ATOM     26  O   UNL     1      -1.519   2.186   0.000  1.00  0.00    -0.507 OA
ATOM     27  H   UNL     1       0.000   0.000   0.000  1.00  0.00     0.293 HD
ENDBRANCH   4  26
BRANCH  10  28
ATOM     28  O   UNL     1       2.815  -4.463   0.000  1.00  0.00    -0.506 OA
ATOM     29  H   UNL     1       0.000   0.000   0.000  1.00  0.00     0.293 HD
ENDBRANCH  10  28
BRANCH  13  30
ATOM     30  C   UNL     1       3.629   1.481   0.000  1.00  0.00     0.063 C 
BRANCH  30  31
ATOM     31  C   UNL     1       5.018   2.048   0.000  1.00  0.00    -0.024 C 
BRANCH  31  32
ATOM     32  C   UNL     1       5.221   3.534   0.000  1.00  0.00    -0.080 C 
ATOM     33  C   UNL     1       6.610   4.101   0.000  1.00  0.00     0.039 C 
ATOM     34  C   UNL     1       4.036   4.453   0.000  1.00  0.00     0.039 C 
ENDBRANCH  31  32
ENDBRANCH  30  31
ENDBRANCH  13  30
TORSDOF 10
