REMARK SMILES C[C@@H]1O[C@@H](OC[C@H]2O[C@@H](O[C@@H]3[C@@H](O)[C@H](C)O[C@@H](O[C@H]4[C@H](Oc5c(-c6ccc(O)cc6)oc6cc(O)cc(O)c6c5=O)O[C@H](CO)[C@@H](O)[C@@H]4O)[C@@H]3O)[C@H](O)[C@@H](O)[C@@H]2O)[C@H](O)[C@H](O)[C@H]1O
REMARK SMILES IDX 11 1 12 2 14 3 15 4 16 5 17 6 50 7 10 8 9 9 7 10 8 11 56 12
REMARK SMILES IDX 54 13 52 14 6 15 5 16 4 17 2 18 3 19 62 20 60 21 58 22 1 23
REMARK SMILES IDX 63 24 61 26 59 28 57 30 55 32 53 34 13 36 51 38 18 40 19 41
REMARK SMILES IDX 20 42 48 43 42 44 46 45 43 46 21 47 22 48 23 49 40 50 31 51
REMARK SMILES IDX 39 52 32 53 37 54 33 55 36 56 34 57 41 58 24 59 25 60 30 61
REMARK SMILES IDX 26 62 29 63 27 64 28 65 38 67 35 69 49 71 47 73 44 75 45 76
REMARK H PARENT 63 25 61 27 59 29 57 31 55 33 53 35 13 37 51 39 28 66 38 68
REMARK H PARENT 35 70 49 72 47 74 45 77
ROOT
ATOM      1  C   UNL     1      -1.961  -1.655   0.000  1.00  0.00     0.186 C 
ATOM      2  C   UNL     1      -2.742  -0.374   0.000  1.00  0.00     0.175 C 
ATOM      3  C   UNL     1      -2.023   0.942   0.000  1.00  0.00     0.150 C 
ATOM      4  C   UNL     1      -2.803   2.223   0.000  1.00  0.00     0.041 C 
ATOM      5  O   UNL     1      -0.523   0.978   0.000  1.00  0.00    -0.344 OA
ATOM      6  C   UNL     1       0.257  -0.303   0.000  1.00  0.00     0.282 C 
ATOM      7  C   UNL     1      -0.462  -1.620   0.000  1.00  0.00     0.202 C 
ENDROOT
BRANCH   1   8
ATOM      8  O   UNL     1      -2.680  -2.972   0.000  1.00  0.00    -0.341 OA
BRANCH   8   9
ATOM      9  C   UNL     1      -4.180  -3.007   0.000  1.00  0.00     0.282 C 
ATOM     10  C   UNL     1      -6.460  -1.762   0.000  1.00  0.00     0.178 C 
ATOM     11  O   UNL     1      -4.961  -1.726   0.000  1.00  0.00    -0.341 OA
ATOM     12  C   UNL     1      -7.179  -3.078   0.000  1.00  0.00     0.177 C 
ATOM     13  C   UNL     1      -6.399  -4.359   0.000  1.00  0.00     0.179 C 
ATOM     14  C   UNL     1      -4.899  -4.324   0.000  1.00  0.00     0.202 C 
BRANCH  10  15
ATOM     15  C   UNL     1      -7.241  -0.481   0.000  1.00  0.00     0.198 C 
BRANCH  15  16
ATOM     16  O   UNL     1      -8.740  -0.516   0.000  1.00  0.00    -0.347 OA
BRANCH  16  17
ATOM     17  C   UNL     1      -9.521   0.765   0.000  1.00  0.00     0.281 C 
ATOM     18  C   UNL     1     -11.801   2.010   0.000  1.00  0.00     0.150 C 
ATOM     19  O   UNL     1     -11.020   0.729   0.000  1.00  0.00    -0.344 OA
ATOM     20  C   UNL     1     -11.082   3.327   0.000  1.00  0.00     0.174 C 
ATOM     21  C   UNL     1      -9.582   3.362   0.000  1.00  0.00     0.179 C 
ATOM     22  C   UNL     1      -8.802   2.081   0.000  1.00  0.00     0.202 C 
ATOM     23  C   UNL     1     -13.300   1.975   0.000  1.00  0.00     0.041 C 
BRANCH  20  24
ATOM     24  O   UNL     1     -11.862   4.608   0.000  1.00  0.00    -0.388 OA
ATOM     25  H   UNL     1       0.000   0.000   0.000  1.00  0.00     0.211 HD
ENDBRANCH  20  24
BRANCH  21  26
ATOM     26  O   UNL     1      -8.863   4.678   0.000  1.00  0.00    -0.387 OA
ATOM     27  H   UNL     1       0.000   0.000   0.000  1.00  0.00     0.211 HD
ENDBRANCH  21  26
BRANCH  22  28
ATOM     28  O   UNL     1      -7.302   2.117   0.000  1.00  0.00    -0.385 OA
ATOM     29  H   UNL     1       0.000   0.000   0.000  1.00  0.00     0.211 HD
ENDBRANCH  22  28
ENDBRANCH  16  17
ENDBRANCH  15  16
ENDBRANCH  10  15
BRANCH  12  30
ATOM     30  O   UNL     1      -8.679  -3.114   0.000  1.00  0.00    -0.387 OA
ATOM     31  H   UNL     1       0.000   0.000   0.000  1.00  0.00     0.211 HD
ENDBRANCH  12  30
BRANCH  13  32
ATOM     32  O   UNL     1      -7.118  -5.675   0.000  1.00  0.00    -0.387 OA
ATOM     33  H   UNL     1       0.000   0.000   0.000  1.00  0.00     0.211 HD
ENDBRANCH  13  32
BRANCH  14  34
ATOM     34  O   UNL     1      -4.119  -5.604   0.000  1.00  0.00    -0.385 OA
ATOM     35  H   UNL     1       0.000   0.000   0.000  1.00  0.00     0.211 HD
ENDBRANCH  14  34
ENDBRANCH   8   9
ENDBRANCH   1   8
BRANCH   2  36
ATOM     36  O   UNL     1      -4.242  -0.410   0.000  1.00  0.00    -0.388 OA
ATOM     37  H   UNL     1       0.000   0.000   0.000  1.00  0.00     0.211 HD
ENDBRANCH   2  36
BRANCH   7  38
ATOM     38  O   UNL     1       0.319  -2.901   0.000  1.00  0.00    -0.385 OA
ATOM     39  H   UNL     1       0.000   0.000   0.000  1.00  0.00     0.211 HD
ENDBRANCH   7  38
BRANCH   6  40
ATOM     40  O   UNL     1       1.757  -0.268   0.000  1.00  0.00    -0.337 OA
BRANCH  40  41
ATOM     41  C   UNL     1       2.476   1.049   0.000  1.00  0.00     0.221 C 
ATOM     42  C   UNL     1       3.975   1.084   0.000  1.00  0.00     0.340 C 
ATOM     43  C   UNL     1       1.695   2.329   0.000  1.00  0.00     0.181 C 
ATOM     44  O   UNL     1       4.694   2.401   0.000  1.00  0.00    -0.332 OA
ATOM     45  C   UNL     1       2.414   3.646   0.000  1.00  0.00     0.177 C 
ATOM     46  C   UNL     1       3.914   3.681   0.000  1.00  0.00     0.179 C 
BRANCH  42  47
ATOM     47  O   UNL     1       4.756  -0.197   0.000  1.00  0.00    -0.454 OA
BRANCH  47  48
ATOM     48  C   UNL     1       6.256  -0.161   0.000  1.00  0.00     0.214 A 
ATOM     49  C   UNL     1       7.036  -1.442   0.000  1.00  0.00     0.180 A 
ATOM     50  C   UNL     1       6.975   1.155   0.000  1.00  0.00     0.239 A 
ATOM     51  O   UNL     1       8.536  -1.407   0.000  1.00  0.00    -0.452 OA
ATOM     52  C   UNL     1       8.474   1.190   0.000  1.00  0.00     0.111 A 
ATOM     53  C   UNL     1       9.255  -0.090   0.000  1.00  0.00     0.146 A 
ATOM     54  C   UNL     1       9.193   2.507   0.000  1.00  0.00     0.134 A 
ATOM     55  C   UNL     1      10.754  -0.055   0.000  1.00  0.00     0.094 A 
ATOM     56  C   UNL     1      10.693   2.542   0.000  1.00  0.00     0.093 A 
ATOM     57  C   UNL     1      11.473   1.262   0.000  1.00  0.00     0.123 A 
ATOM     58  O   UNL     1       6.194   2.436   0.000  1.00  0.00    -0.285 OA
BRANCH  49  59
ATOM     59  C   UNL     1       6.317  -2.759   0.000  1.00  0.00     0.021 A 
ATOM     60  C   UNL     1       4.817  -2.794   0.000  1.00  0.00     0.016 A 
ATOM     61  C   UNL     1       7.098  -4.040   0.000  1.00  0.00     0.016 A 
ATOM     62  C   UNL     1       4.098  -4.111   0.000  1.00  0.00     0.047 A 
ATOM     63  C   UNL     1       6.378  -5.356   0.000  1.00  0.00     0.047 A 
ATOM     64  C   UNL     1       4.879  -5.391   0.000  1.00  0.00     0.115 A 
BRANCH  64  65
ATOM     65  O   UNL     1       4.160  -6.708   0.000  1.00  0.00    -0.508 OA
ATOM     66  H   UNL     1       0.000   0.000   0.000  1.00  0.00     0.293 HD
ENDBRANCH  64  65
ENDBRANCH  49  59
BRANCH  54  67
ATOM     67  O   UNL     1       8.413   3.788   0.000  1.00  0.00    -0.507 OA
ATOM     68  H   UNL     1       0.000   0.000   0.000  1.00  0.00     0.293 HD
ENDBRANCH  54  67
BRANCH  57  69
ATOM     69  O   UNL     1      12.973   1.297   0.000  1.00  0.00    -0.508 OA
ATOM     70  H   UNL     1       0.000   0.000   0.000  1.00  0.00     0.293 HD
ENDBRANCH  57  69
ENDBRANCH  47  48
ENDBRANCH  42  47
BRANCH  43  71
ATOM     71  O   UNL     1       0.196   2.294   0.000  1.00  0.00    -0.387 OA
ATOM     72  H   UNL     1       0.000   0.000   0.000  1.00  0.00     0.211 HD
ENDBRANCH  43  71
BRANCH  45  73
ATOM     73  O   UNL     1       1.634   4.927   0.000  1.00  0.00    -0.387 OA
ATOM     74  H   UNL     1       0.000   0.000   0.000  1.00  0.00     0.211 HD
ENDBRANCH  45  73
BRANCH  46  75
ATOM     75  C   UNL     1       4.633   4.998   0.000  1.00  0.00     0.191 C 
BRANCH  75  76
ATOM     76  O   UNL     1       3.853   6.279   0.000  1.00  0.00    -0.394 OA
ATOM     77  H   UNL     1       0.000   0.000   0.000  1.00  0.00     0.210 HD
ENDBRANCH  75  76
ENDBRANCH  46  75
ENDBRANCH  40  41
ENDBRANCH   6  40
TORSDOF 25
