REMARK SMILES COc1cc2oc(-c3ccc4c(c3)OCO4)cc(=O)c2c(OC)c1OC
REMARK SMILES IDX 3 1 4 2 5 3 20 4 21 5 24 6 18 7 19 8 17 9 7 10 6 11 2 12
REMARK SMILES IDX 1 13 25 14 26 15 22 16 23 17 8 18 9 19 13 20 10 21 12 22
REMARK SMILES IDX 11 23 14 24 16 25 15 26
REMARK H PARENT
ROOT
ATOM      1  C   UNL     1      -3.750   1.405   0.000  1.00  0.00     0.168 A 
ATOM      2  C   UNL     1      -2.289   1.747   0.000  1.00  0.00     0.098 A 
ATOM      3  C   UNL     1      -1.263   0.653   0.000  1.00  0.00     0.146 A 
ATOM      4  C   UNL     1      -1.697  -0.783   0.000  1.00  0.00     0.111 A 
ATOM      5  C   UNL     1      -3.157  -1.125   0.000  1.00  0.00     0.179 A 
ATOM      6  C   UNL     1      -4.184  -0.031   0.000  1.00  0.00     0.204 A 
ATOM      7  C   UNL     1      -0.670  -1.877   0.000  1.00  0.00     0.197 A 
ATOM      8  O   UNL     1      -1.104  -3.313   0.000  1.00  0.00    -0.289 OA
ATOM      9  C   UNL     1       0.790  -1.535   0.000  1.00  0.00     0.100 A 
ATOM     10  C   UNL     1       1.224  -0.099   0.000  1.00  0.00     0.138 A 
ATOM     11  O   UNL     1       0.198   0.995   0.000  1.00  0.00    -0.456 OA
ENDROOT
BRANCH   1  12
ATOM     12  O   UNL     1      -4.776   2.498   0.000  1.00  0.00    -0.493 OA
ATOM     13  C   UNL     1      -4.342   3.934   0.000  1.00  0.00     0.278 C 
ENDBRANCH   1  12
BRANCH   6  14
ATOM     14  O   UNL     1      -5.644  -0.373   0.000  1.00  0.00    -0.490 OA
ATOM     15  C   UNL     1      -6.671   0.720   0.000  1.00  0.00     0.278 C 
ENDBRANCH   6  14
BRANCH   5  16
ATOM     16  O   UNL     1      -3.591  -2.561   0.000  1.00  0.00    -0.492 OA
ATOM     17  C   UNL     1      -5.052  -2.903   0.000  1.00  0.00     0.278 C 
ENDBRANCH   5  16
BRANCH  10  18
ATOM     18  C   UNL     1       2.685   0.243   0.000  1.00  0.00     0.021 A 
ATOM     19  C   UNL     1       3.119   1.679   0.000  1.00  0.00     0.016 A 
ATOM     20  C   UNL     1       3.711  -0.850   0.000  1.00  0.00     0.062 A 
ATOM     21  C   UNL     1       4.579   2.021   0.000  1.00  0.00     0.051 A 
ATOM     22  C   UNL     1       5.172  -0.508   0.000  1.00  0.00     0.166 A 
ATOM     23  C   UNL     1       5.606   0.927   0.000  1.00  0.00     0.165 A 
ATOM     24  O   UNL     1       6.403  -1.365   0.000  1.00  0.00    -0.454 OA
ATOM     25  O   UNL     1       7.105   0.959   0.000  1.00  0.00    -0.454 OA
ATOM     26  C   UNL     1       7.598  -0.458   0.000  1.00  0.00     0.468 C 
ENDBRANCH  10  18
TORSDOF 4
