REMARK SMILES COc1cc2oc(=O)ccc2cc1C=O
REMARK SMILES IDX 3 1 4 2 5 3 11 4 10 5 9 6 7 7 8 8 6 9 12 10 13 11 2 12 1 13
REMARK SMILES IDX 14 14 15 15
REMARK H PARENT
ROOT
ATOM      1  C   UNL     1      -1.724   0.527   0.000  1.00  0.00     0.133 A 
ATOM      2  C   UNL     1      -0.413   1.257   0.000  1.00  0.00     0.095 A 
ATOM      3  C   UNL     1       0.874   0.486   0.000  1.00  0.00     0.142 A 
ATOM      4  C   UNL     1       0.850  -1.014   0.000  1.00  0.00     0.019 A 
ATOM      5  C   UNL     1       2.137  -1.784   0.000  1.00  0.00     0.019 A 
ATOM      6  C   UNL     1       3.448  -1.054   0.000  1.00  0.00     0.094 A 
ATOM      7  C   UNL     1       3.471   0.445   0.000  1.00  0.00     0.336 A 
ATOM      8  O   UNL     1       4.782   1.175   0.000  1.00  0.00    -0.246 OA
ATOM      9  O   UNL     1       2.184   1.216   0.000  1.00  0.00    -0.423 OA
ATOM     10  C   UNL     1      -0.461  -1.743   0.000  1.00  0.00     0.027 A 
ATOM     11  C   UNL     1      -1.748  -0.973   0.000  1.00  0.00     0.057 A 
ENDROOT
BRANCH   1  12
ATOM     12  O   UNL     1      -3.011   1.298   0.000  1.00  0.00    -0.496 OA
ATOM     13  C   UNL     1      -2.987   2.797   0.000  1.00  0.00     0.278 C 
ENDBRANCH   1  12
BRANCH  11  14
ATOM     14  C   UNL     1      -3.058  -1.702   0.000  1.00  0.00     0.263 C 
ATOM     15  O   UNL     1      -4.345  -0.932   0.000  1.00  0.00    -0.298 OA
ENDBRANCH  11  14
TORSDOF 2
