REMARK SMILES CC(=O)O[C@@H]1CC[C@]2(C)[C@H]3CC[C@@H]4[C@@H]([C@]5(C)CC[C@@H](C(C)(C)O)O5)CC[C@@]4(C)[C@]3(C)CC[C@H]2C1(C)C
REMARK SMILES IDX 5 1 6 2 7 3 8 4 9 5 10 6 11 7 12 8 13 9 14 10 25 11 26 12
REMARK SMILES IDX 27 13 28 14 29 15 30 16 31 17 32 18 33 19 34 20 35 21 36 22
REMARK SMILES IDX 4 23 2 24 1 25 3 26 15 27 17 28 24 29 18 30 19 31 16 32
REMARK SMILES IDX 20 33 21 34 22 35 23 36
REMARK H PARENT 23 37
ROOT
ATOM      1  C   UNL     1      -5.694   0.100   0.000  1.00  0.00     0.182 C 
ATOM      2  C   UNL     1      -4.994   1.426   0.000  1.00  0.00     0.046 C 
ATOM      3  C   UNL     1      -3.495   1.482   0.000  1.00  0.00     0.011 C 
ATOM      4  C   UNL     1      -2.696   0.212   0.000  1.00  0.00    -0.026 C 
ATOM      5  C   UNL     1      -1.996   1.538   0.000  1.00  0.00     0.012 C 
ATOM      6  C   UNL     1      -1.198   0.269   0.000  1.00  0.00     0.002 C 
ATOM      7  C   UNL     1      -0.497   1.595   0.000  1.00  0.00     0.005 C 
ATOM      8  C   UNL     1       1.002   1.651   0.000  1.00  0.00     0.005 C 
ATOM      9  C   UNL     1       1.800   0.381   0.000  1.00  0.00     0.001 C 
ATOM     10  C   UNL     1       3.278   0.124   0.000  1.00  0.00     0.025 C 
ATOM     11  C   UNL     1       3.491  -1.361   0.000  1.00  0.00     0.007 C 
ATOM     12  C   UNL     1       2.144  -2.022   0.000  1.00  0.00     0.008 C 
ATOM     13  C   UNL     1       1.099  -0.945   0.000  1.00  0.00    -0.024 C 
ATOM     14  C   UNL     1       0.541  -2.338   0.000  1.00  0.00     0.012 C 
ATOM     15  C   UNL     1      -0.400  -1.002   0.000  1.00  0.00    -0.024 C 
ATOM     16  C   UNL     1      -1.898  -1.058   0.000  1.00  0.00     0.012 C 
ATOM     17  C   UNL     1      -1.100  -2.328   0.000  1.00  0.00     0.008 C 
ATOM     18  C   UNL     1      -2.599  -2.384   0.000  1.00  0.00     0.005 C 
ATOM     19  C   UNL     1      -3.397  -1.114   0.000  1.00  0.00     0.005 C 
ATOM     20  C   UNL     1      -4.896  -1.170   0.000  1.00  0.00     0.005 C 
ATOM     21  C   UNL     1      -4.581  -2.636   0.000  1.00  0.00     0.015 C 
ATOM     22  C   UNL     1      -6.286  -1.736   0.000  1.00  0.00     0.015 C 
ENDROOT
BRANCH   1  23
ATOM     23  O   UNL     1      -7.193   0.044   0.000  1.00  0.00    -0.462 OA
BRANCH  23  24
ATOM     24  C   UNL     1      -7.992   1.314   0.000  1.00  0.00     0.302 C 
ATOM     25  C   UNL     1      -9.491   1.258   0.000  1.00  0.00     0.139 C 
ATOM     26  O   UNL     1      -7.291   2.640   0.000  1.00  0.00    -0.253 OA
ENDBRANCH  23  24
ENDBRANCH   1  23
BRANCH  10  27
ATOM     27  C   UNL     1       4.354   1.169   0.000  1.00  0.00     0.069 C 
ATOM     28  C   UNL     1       5.190   2.415   0.000  1.00  0.00     0.038 C 
ATOM     29  O   UNL     1       5.281  -0.011   0.000  1.00  0.00    -0.369 OA
ATOM     30  C   UNL     1       6.633   2.005   0.000  1.00  0.00     0.038 C 
ATOM     31  C   UNL     1       6.689   0.506   0.000  1.00  0.00     0.150 C 
ATOM     32  C   UNL     1       3.203   2.130   0.000  1.00  0.00     0.042 C 
BRANCH  31  33
ATOM     33  C   UNL     1       7.935  -0.330   0.000  1.00  0.00     0.085 C 
ATOM     34  C   UNL     1       8.771   0.916   0.000  1.00  0.00     0.044 C 
ATOM     35  C   UNL     1       7.099  -1.575   0.000  1.00  0.00     0.044 C 
BRANCH  33  36
ATOM     36  O   UNL     1       9.181  -1.165   0.000  1.00  0.00    -0.388 OA
ATOM     37  H   UNL     1       0.000   0.000   0.000  1.00  0.00     0.211 HD
ENDBRANCH  33  36
ENDBRANCH  31  33
ENDBRANCH  10  27
TORSDOF 5
