REMARK SMILES COC(=O)[C@@]1(C)C[C@@H]2[C@](C)(CC1=O)CC(C)=C1C3=CC=C4C(=CC(=O)C(O)=C4C)[C@]3(C)CC[C@]12C
REMARK SMILES IDX 5 1 6 2 7 3 8 4 9 5 10 6 11 7 12 8 13 9 14 10 15 11 16 12
REMARK SMILES IDX 17 13 18 14 19 15 20 16 21 17 22 18 23 19 24 20 25 21 26 22
REMARK SMILES IDX 28 23 29 24 30 25 31 26 32 27 33 28 34 29 35 30 3 31 4 32
REMARK SMILES IDX 2 33 1 34 27 35
REMARK H PARENT 27 36
ROOT
ATOM      1  C   UNL     1       4.794  -0.527   0.000  1.00  0.00     0.124 C 
ATOM      2  C   UNL     1       6.264  -0.827   0.000  1.00  0.00     0.032 C 
ATOM      3  C   UNL     1       3.310  -0.747   0.000  1.00  0.00     0.031 C 
ATOM      4  C   UNL     1       2.377   0.427   0.000  1.00  0.00     0.008 C 
ATOM      5  C   UNL     1       2.928   1.822   0.000  1.00  0.00    -0.018 C 
ATOM      6  C   UNL     1       3.479   3.218   0.000  1.00  0.00     0.012 C 
ATOM      7  C   UNL     1       4.412   2.043   0.000  1.00  0.00     0.084 C 
ATOM      8  C   UNL     1       5.345   0.869   0.000  1.00  0.00     0.150 C 
ATOM      9  O   UNL     1       6.829   1.089   0.000  1.00  0.00    -0.298 OA
ATOM     10  C   UNL     1       1.995   2.997   0.000  1.00  0.00     0.038 C 
ATOM     11  C   UNL     1       0.512   2.776   0.000  1.00  0.00    -0.069 C 
ATOM     12  C   UNL     1      -0.421   3.951   0.000  1.00  0.00     0.040 C 
ATOM     13  C   UNL     1      -0.039   1.381   0.000  1.00  0.00    -0.039 C 
ATOM     14  C   UNL     1      -1.523   1.160   0.000  1.00  0.00    -0.034 C 
ATOM     15  C   UNL     1      -2.456   2.335   0.000  1.00  0.00     0.005 C 
ATOM     16  C   UNL     1      -3.939   2.114   0.000  1.00  0.00     0.009 C 
ATOM     17  C   UNL     1      -4.490   0.719   0.000  1.00  0.00    -0.015 C 
ATOM     18  C   UNL     1      -3.557  -0.456   0.000  1.00  0.00    -0.026 C 
ATOM     19  C   UNL     1      -4.108  -1.851   0.000  1.00  0.00     0.061 C 
ATOM     20  C   UNL     1      -5.592  -2.071   0.000  1.00  0.00     0.220 C 
ATOM     21  O   UNL     1      -6.142  -3.467   0.000  1.00  0.00    -0.286 OA
ATOM     22  C   UNL     1      -6.525  -0.897   0.000  1.00  0.00     0.166 C 
ATOM     23  C   UNL     1      -5.974   0.498   0.000  1.00  0.00     0.002 C 
ATOM     24  C   UNL     1      -6.907   1.673   0.000  1.00  0.00     0.049 C 
ATOM     25  C   UNL     1      -2.074  -0.235   0.000  1.00  0.00     0.018 C 
ATOM     26  C   UNL     1      -2.624  -1.630   0.000  1.00  0.00     0.021 C 
ATOM     27  C   UNL     1      -1.141  -1.409   0.000  1.00  0.00     0.017 C 
ATOM     28  C   UNL     1       0.343  -1.189   0.000  1.00  0.00     0.013 C 
ATOM     29  C   UNL     1       0.894   0.206   0.000  1.00  0.00    -0.004 C 
ATOM     30  C   UNL     1       1.827  -0.968   0.000  1.00  0.00     0.017 C 
ENDROOT
BRANCH   1  31
ATOM     31  C   UNL     1       4.754  -2.026   0.000  1.00  0.00     0.319 C 
ATOM     32  O   UNL     1       3.435  -2.741   0.000  1.00  0.00    -0.251 OA
BRANCH  31  33
ATOM     33  O   UNL     1       6.032  -2.811   0.000  1.00  0.00    -0.468 OA
ATOM     34  C   UNL     1       5.992  -4.310   0.000  1.00  0.00     0.282 C 
ENDBRANCH  31  33
ENDBRANCH   1  31
BRANCH  22  35
ATOM     35  O   UNL     1      -8.008  -1.117   0.000  1.00  0.00    -0.504 OA
ATOM     36  H   UNL     1       0.000   0.000   0.000  1.00  0.00     0.293 HD
ENDBRANCH  22  35
TORSDOF 3
