REMARK SMILES COc1cc2oc(-c3ccc(O)cc3)cc(=O)c2c(O)c1O
REMARK SMILES IDX 3 1 4 2 5 3 18 4 19 5 21 6 16 7 17 8 15 9 7 10 6 11 2 12
REMARK SMILES IDX 1 13 22 14 20 16 8 18 9 19 14 20 10 21 13 22 11 23 12 24
REMARK H PARENT 22 15 20 17 12 25
ROOT
ATOM      1  C   UNL     1      -3.618   1.284   0.000  1.00  0.00     0.168 A 
ATOM      2  C   UNL     1      -2.151   1.596   0.000  1.00  0.00     0.098 A 
ATOM      3  C   UNL     1      -1.148   0.481   0.000  1.00  0.00     0.146 A 
ATOM      4  C   UNL     1      -1.611  -0.946   0.000  1.00  0.00     0.111 A 
ATOM      5  C   UNL     1      -3.079  -1.257   0.000  1.00  0.00     0.176 A 
ATOM      6  C   UNL     1      -4.082  -0.142   0.000  1.00  0.00     0.201 A 
ATOM      7  C   UNL     1      -0.608  -2.061   0.000  1.00  0.00     0.197 A 
ATOM      8  O   UNL     1      -1.072  -3.487   0.000  1.00  0.00    -0.289 OA
ATOM      9  C   UNL     1       0.859  -1.749   0.000  1.00  0.00     0.100 A 
ATOM     10  C   UNL     1       1.323  -0.323   0.000  1.00  0.00     0.138 A 
ATOM     11  O   UNL     1       0.320   0.792   0.000  1.00  0.00    -0.456 OA
ENDROOT
BRANCH   1  12
ATOM     12  O   UNL     1      -4.622   2.399   0.000  1.00  0.00    -0.493 OA
ATOM     13  C   UNL     1      -4.158   3.826   0.000  1.00  0.00     0.278 C 
ENDBRANCH   1  12
BRANCH   6  14
ATOM     14  O   UNL     1      -5.550  -0.454   0.000  1.00  0.00    -0.502 OA
ATOM     15  H   UNL     1       0.000   0.000   0.000  1.00  0.00     0.293 HD
ENDBRANCH   6  14
BRANCH   5  16
ATOM     16  O   UNL     1      -3.543  -2.684   0.000  1.00  0.00    -0.504 OA
ATOM     17  H   UNL     1       0.000   0.000   0.000  1.00  0.00     0.293 HD
ENDBRANCH   5  16
BRANCH  10  18
ATOM     18  C   UNL     1       2.790  -0.011   0.000  1.00  0.00     0.018 A 
ATOM     19  C   UNL     1       3.794  -1.126   0.000  1.00  0.00     0.016 A 
ATOM     20  C   UNL     1       3.254   1.415   0.000  1.00  0.00     0.016 A 
ATOM     21  C   UNL     1       5.261  -0.815   0.000  1.00  0.00     0.047 A 
ATOM     22  C   UNL     1       4.722   1.727   0.000  1.00  0.00     0.047 A 
ATOM     23  C   UNL     1       5.725   0.612   0.000  1.00  0.00     0.115 A 
BRANCH  23  24
ATOM     24  O   UNL     1       7.192   0.923   0.000  1.00  0.00    -0.508 OA
ATOM     25  H   UNL     1       0.000   0.000   0.000  1.00  0.00     0.293 HD
ENDBRANCH  23  24
ENDBRANCH  10  18
TORSDOF 5
