REMARK SMILES CC(C)CCC[C@@H](C)[C@H]1CC[C@H]2C3CC(=O)[C@@]4(O)CC(O)CC[C@]4(C)[C@H]3CC[C@]12C
REMARK SMILES IDX 6 1 5 2 4 3 2 4 1 5 3 6 7 7 8 8 9 9 10 10 29 11 11 12 28 13
REMARK SMILES IDX 12 14 27 15 13 16 26 17 14 18 24 19 15 20 23 21 17 22 22 23
REMARK SMILES IDX 19 24 20 25 30 26 25 27 16 28 18 29 21 31
REMARK H PARENT 18 30 21 32
ROOT
ATOM      1  C   UNL     1      -4.064  -0.128   0.000  1.00  0.00     0.003 C 
ENDROOT
BRANCH   1   2
ATOM      2  C   UNL     1      -5.504   0.289   0.000  1.00  0.00     0.001 C 
BRANCH   2   3
ATOM      3  C   UNL     1      -5.863   1.746   0.000  1.00  0.00     0.003 C 
BRANCH   3   4
ATOM      4  C   UNL     1      -7.304   2.163   0.000  1.00  0.00    -0.017 C 
ATOM      5  C   UNL     1      -7.663   3.619   0.000  1.00  0.00     0.007 C 
ATOM      6  C   UNL     1      -8.386   1.124   0.000  1.00  0.00     0.007 C 
ENDBRANCH   3   4
ENDBRANCH   2   3
ENDBRANCH   1   2
BRANCH   1   7
ATOM      7  C   UNL     1      -3.704  -1.584   0.000  1.00  0.00    -0.011 C 
ATOM      8  C   UNL     1      -4.786  -2.623   0.000  1.00  0.00     0.008 C 
BRANCH   7   9
ATOM      9  C   UNL     1      -2.264  -2.001   0.000  1.00  0.00    -0.002 C 
ATOM     10  C   UNL     1      -1.754  -3.412   0.000  1.00  0.00     0.005 C 
ATOM     11  C   UNL     1      -1.079  -1.081   0.000  1.00  0.00    -0.026 C 
ATOM     12  C   UNL     1      -0.255  -3.364   0.000  1.00  0.00     0.005 C 
ATOM     13  C   UNL     1      -0.971   0.415   0.000  1.00  0.00     0.007 C 
ATOM     14  C   UNL     1       0.162  -1.923   0.000  1.00  0.00    -0.001 C 
ATOM     15  C   UNL     1       0.379   1.069   0.000  1.00  0.00     0.005 C 
ATOM     16  C   UNL     1       1.512  -1.269   0.000  1.00  0.00     0.004 C 
ATOM     17  C   UNL     1       1.621   0.227   0.000  1.00  0.00     0.002 C 
ATOM     18  C   UNL     1       2.753  -2.111   0.000  1.00  0.00     0.083 C 
ATOM     19  C   UNL     1       2.970   0.881   0.000  1.00  0.00     0.007 C 
ATOM     20  C   UNL     1       4.103  -1.457   0.000  1.00  0.00     0.165 C 
ATOM     21  C   UNL     1       3.079   2.377   0.000  1.00  0.00     0.013 C 
ATOM     22  C   UNL     1       4.212   0.039   0.000  1.00  0.00     0.131 C 
ATOM     23  C   UNL     1       4.429   3.031   0.000  1.00  0.00     0.032 C 
ATOM     24  C   UNL     1       5.562   0.693   0.000  1.00  0.00     0.075 C 
ATOM     25  C   UNL     1       5.670   2.189   0.000  1.00  0.00     0.117 C 
ATOM     26  C   UNL     1      -2.402  -0.373   0.000  1.00  0.00     0.012 C 
ATOM     27  C   UNL     1       1.729   1.723   0.000  1.00  0.00     0.015 C 
ATOM     28  O   UNL     1       5.345  -2.299   0.000  1.00  0.00    -0.296 OA
BRANCH  22  29
ATOM     29  O   UNL     1       5.453  -0.803   0.000  1.00  0.00    -0.381 OA
ATOM     30  H   UNL     1       0.000   0.000   0.000  1.00  0.00     0.212 HD
ENDBRANCH  22  29
BRANCH  25  31
ATOM     31  O   UNL     1       7.020   2.843   0.000  1.00  0.00    -0.393 OA
ATOM     32  H   UNL     1       0.000   0.000   0.000  1.00  0.00     0.210 HD
ENDBRANCH  25  31
ENDBRANCH   7   9
ENDBRANCH   1   7
TORSDOF 7
