REMARK SMILES CC=C1CN(C)[C@H]2Cc3c([nH]c4ccccc34)C(=O)CC1[C@@H]2C(=O)OC
REMARK SMILES IDX 3 1 4 2 5 3 6 4 7 5 21 6 22 7 2 8 1 9 20 10 23 12 24 13
REMARK SMILES IDX 25 14 26 15 8 16 9 17 10 18 17 19 11 20 16 21 12 22 15 23
REMARK SMILES IDX 13 24 14 25 18 27 19 28
REMARK H PARENT 11 26
REMARK Flexibility Score:   40.900
ROOT
ATOM      1  C   UNL     1      -3.091  -0.782   0.000  1.00  0.00    -0.056 C 
ATOM      2  C   UNL     1      -3.298   0.704   0.000  1.00  0.00     0.115 C 
ATOM      3  N   UNL     1      -2.115   1.626   0.000  1.00  0.00    -0.298 NA
ATOM      4  C   UNL     1      -2.322   3.111   0.000  1.00  0.00     0.106 C 
ATOM      5  C   UNL     1      -0.660   1.223   0.000  1.00  0.00     0.076 C 
ATOM      6  C   UNL     1      -1.701  -1.346   0.000  1.00  0.00     0.039 C 
ATOM      7  C   UNL     1      -1.712   0.154   0.000  1.00  0.00     0.124 C 
ENDROOT
BRANCH   1   8
ATOM      8  C   UNL     1      -4.274  -1.704   0.000  1.00  0.00    -0.030 C 
ATOM      9  C   UNL     1      -4.067  -3.190   0.000  1.00  0.00     0.035 C 
ENDBRANCH   1   8
BRANCH   6  10
ATOM     10  C   UNL     1      -0.632  -2.398   0.000  1.00  0.00     0.091 CG0
ATOM     11  G   UNL     1       0.868  -2.387   0.000  1.00  0.00     0.000 G0
ENDBRANCH   6  10
BRANCH   7  12
ATOM     12  C   UNL     1      -3.103   0.718   0.000  1.00  0.00     0.310 C 
ATOM     13  O   UNL     1      -4.286  -0.204   0.000  1.00  0.00    -0.252 OA
BRANCH  12  14
ATOM     14  O   UNL     1      -3.310   2.204   0.000  1.00  0.00    -0.469 OA
ATOM     15  C   UNL     1      -4.700   2.767   0.000  1.00  0.00     0.282 C 
ENDBRANCH  12  14
ENDBRANCH   7  12
BRANCH   5  16
ATOM     16  C   UNL     1       0.840   1.234   0.000  1.00  0.00     0.058 C 
BRANCH  16  17
ATOM     17  C   UNL     1       1.909   0.182   0.000  1.00  0.00    -0.010 A 
ATOM     18  C   UNL     1       1.920  -1.318   0.000  1.00  0.00     0.086 A 
ATOM     19  C   UNL     1       3.332   0.656   0.000  1.00  0.00     0.003 A 
ATOM     20  N   UNL     1       3.350  -1.771   0.000  1.00  0.00    -0.352 N 
ATOM     21  C   UNL     1       3.932   2.031   0.000  1.00  0.00     0.010 A 
ATOM     22  C   UNL     1       4.223  -0.551   0.000  1.00  0.00     0.046 A 
ATOM     23  C   UNL     1       5.422   2.199   0.000  1.00  0.00     0.001 A 
ATOM     24  C   UNL     1       5.713  -0.383   0.000  1.00  0.00     0.027 A 
ATOM     25  C   UNL     1       6.313   0.992   0.000  1.00  0.00     0.002 A 
ATOM     26  H   UNL     1       0.000   0.000   0.000  1.00  0.00     0.167 HD
BRANCH  18  27
ATOM     27  C   UNL     1       0.868  -2.387   0.000  1.00  0.00     0.179 CG0
ATOM     28  O   UNL     1       1.452  -3.768   0.000  1.00  0.00    -0.293 OA
ATOM     29  G   UNL     1      -0.632  -2.398   0.000  1.00  0.00     0.000 G0
ENDBRANCH  18  27
ENDBRANCH  16  17
ENDBRANCH   5  16
TORSDOF 3
