REMARK SMILES C[C@@H]1O[C@@H](Oc2c(-c3ccc(O)cc3)oc3cc(O)cc(O)c3c2=O)[C@H](O)[C@H](O)[C@H]1OC(=O)C=Cc1cccc(O)c1
REMARK SMILES IDX 31 1 30 2 2 3 3 4 4 5 28 6 26 7 1 8 5 9 6 10 7 11 24 12
REMARK SMILES IDX 15 13 23 14 16 15 21 16 17 17 20 18 18 19 25 20 8 21 9 22
REMARK SMILES IDX 14 23 10 24 13 25 11 26 12 27 22 29 19 31 29 33 27 35 32 37
REMARK SMILES IDX 33 38 34 39 35 40 36 41 37 42 42 43 38 44 40 45 39 46 41 47
REMARK H PARENT 12 28 22 30 19 32 29 34 27 36 41 48
ROOT
ATOM      1  O   UNL     1       3.353   1.712   0.000  1.00  0.00    -0.454 OA
ENDROOT
BRANCH   1   2
ATOM      2  C   UNL     1       1.856   1.625   0.000  1.00  0.00     0.237 C 
ATOM      3  C   UNL     1       1.182   0.285   0.000  1.00  0.00     0.163 C 
ATOM      4  O   UNL     1      -0.316   0.199   0.000  1.00  0.00    -0.334 OA
ATOM      5  C   UNL     1      -1.139   1.452   0.000  1.00  0.00     0.339 C 
ATOM      6  C   UNL     1       1.032   2.879   0.000  1.00  0.00     0.193 C 
ATOM      7  C   UNL     1      -0.466   2.792   0.000  1.00  0.00     0.215 C 
ATOM      8  C   UNL     1       2.006  -0.968   0.000  1.00  0.00     0.043 C 
BRANCH   5   9
ATOM      9  O   UNL     1      -2.637   1.365   0.000  1.00  0.00    -0.454 OA
BRANCH   9  10
ATOM     10  C   UNL     1      -3.311   0.025   0.000  1.00  0.00     0.214 A 
ATOM     11  C   UNL     1      -4.808  -0.061   0.000  1.00  0.00     0.180 A 
ATOM     12  C   UNL     1      -2.487  -1.228   0.000  1.00  0.00     0.239 A 
ATOM     13  O   UNL     1      -5.482  -1.402   0.000  1.00  0.00    -0.452 OA
ATOM     14  C   UNL     1      -3.160  -2.568   0.000  1.00  0.00     0.111 A 
ATOM     15  C   UNL     1      -4.658  -2.655   0.000  1.00  0.00     0.146 A 
ATOM     16  C   UNL     1      -2.337  -3.822   0.000  1.00  0.00     0.134 A 
ATOM     17  C   UNL     1      -5.332  -3.995   0.000  1.00  0.00     0.094 A 
ATOM     18  C   UNL     1      -3.010  -5.162   0.000  1.00  0.00     0.093 A 
ATOM     19  C   UNL     1      -4.508  -5.249   0.000  1.00  0.00     0.123 A 
ATOM     20  O   UNL     1      -0.989  -1.142   0.000  1.00  0.00    -0.285 OA
BRANCH  11  21
ATOM     21  C   UNL     1      -5.632   1.192   0.000  1.00  0.00     0.021 A 
ATOM     22  C   UNL     1      -4.958   2.532   0.000  1.00  0.00     0.016 A 
ATOM     23  C   UNL     1      -7.129   1.105   0.000  1.00  0.00     0.016 A 
ATOM     24  C   UNL     1      -5.782   3.786   0.000  1.00  0.00     0.047 A 
ATOM     25  C   UNL     1      -7.953   2.359   0.000  1.00  0.00     0.047 A 
ATOM     26  C   UNL     1      -7.279   3.699   0.000  1.00  0.00     0.115 A 
BRANCH  26  27
ATOM     27  O   UNL     1      -8.103   4.953   0.000  1.00  0.00    -0.508 OA
ATOM     28  H   UNL     1       0.000   0.000   0.000  1.00  0.00     0.293 HD
ENDBRANCH  26  27
ENDBRANCH  11  21
BRANCH  16  29
ATOM     29  O   UNL     1      -0.839  -3.735   0.000  1.00  0.00    -0.507 OA
ATOM     30  H   UNL     1       0.000   0.000   0.000  1.00  0.00     0.293 HD
ENDBRANCH  16  29
BRANCH  19  31
ATOM     31  O   UNL     1      -5.181  -6.589   0.000  1.00  0.00    -0.508 OA
ATOM     32  H   UNL     1       0.000   0.000   0.000  1.00  0.00     0.293 HD
ENDBRANCH  19  31
ENDBRANCH   9  10
ENDBRANCH   5   9
BRANCH   6  33
ATOM     33  O   UNL     1       1.706   4.219   0.000  1.00  0.00    -0.386 OA
ATOM     34  H   UNL     1       0.000   0.000   0.000  1.00  0.00     0.211 HD
ENDBRANCH   6  33
BRANCH   7  35
ATOM     35  O   UNL     1      -1.290   4.046   0.000  1.00  0.00    -0.384 OA
ATOM     36  H   UNL     1       0.000   0.000   0.000  1.00  0.00     0.211 HD
ENDBRANCH   7  35
ENDBRANCH   1   2
BRANCH   1  37
ATOM     37  C   UNL     1       4.177   0.459   0.000  1.00  0.00     0.331 C 
ATOM     38  O   UNL     1       3.503  -0.882   0.000  1.00  0.00    -0.247 OA
BRANCH  37  39
ATOM     39  C   UNL     1       5.674   0.545   0.000  1.00  0.00     0.094 C 
BRANCH  39  40
ATOM     40  C   UNL     1       6.498  -0.708   0.000  1.00  0.00     0.016 C 
BRANCH  40  41
ATOM     41  C   UNL     1       7.996  -0.622   0.000  1.00  0.00    -0.022 A 
ATOM     42  C   UNL     1       8.819  -1.875   0.000  1.00  0.00     0.008 A 
ATOM     43  C   UNL     1       8.669   0.719   0.000  1.00  0.00     0.054 A 
ATOM     44  C   UNL     1      10.317  -1.788   0.000  1.00  0.00     0.004 A 
ATOM     45  C   UNL     1      10.167   0.805   0.000  1.00  0.00     0.116 A 
ATOM     46  C   UNL     1      10.991  -0.448   0.000  1.00  0.00     0.046 A 
BRANCH  45  47
ATOM     47  O   UNL     1      10.841   2.146   0.000  1.00  0.00    -0.508 OA
ATOM     48  H   UNL     1       0.000   0.000   0.000  1.00  0.00     0.293 HD
ENDBRANCH  45  47
ENDBRANCH  40  41
ENDBRANCH  39  40
ENDBRANCH  37  39
ENDBRANCH   1  37
TORSDOF 14
