REMARK SMILES C=CC[C@]1(OC)C=C2C(=CC1=O)O[C@@H](Cc1ccc3c(c1)OCO3)[C@@H]2C
REMARK SMILES IDX 4 1 7 2 8 3 9 4 10 5 11 6 12 7 13 8 14 9 25 10 26 11 3 12
REMARK SMILES IDX 2 13 1 14 5 15 6 16 15 17 16 18 17 19 21 20 18 21 20 22
REMARK SMILES IDX 19 23 22 24 24 25 23 26
REMARK H PARENT
ROOT
ATOM      1  C   UNL     1       4.153   0.182   0.000  1.00  0.00     0.152 C 
ATOM      2  C   UNL     1       3.244  -1.011   0.000  1.00  0.00     0.024 C 
ATOM      3  C   UNL     1       1.756  -0.821   0.000  1.00  0.00     0.000 C 
ATOM      4  C   UNL     1       1.178   0.563   0.000  1.00  0.00     0.126 C 
ATOM      5  C   UNL     1       2.087   1.756   0.000  1.00  0.00     0.097 C 
ATOM      6  C   UNL     1       3.575   1.566   0.000  1.00  0.00     0.195 C 
ATOM      7  O   UNL     1       4.484   2.759   0.000  1.00  0.00    -0.291 OA
ATOM      8  O   UNL     1      -0.317   0.441   0.000  1.00  0.00    -0.489 OA
ATOM      9  C   UNL     1      -0.663  -1.019   0.000  1.00  0.00     0.185 C 
ATOM     10  C   UNL     1       0.619  -1.798   0.000  1.00  0.00     0.061 C 
ATOM     11  C   UNL     1       0.742  -3.293   0.000  1.00  0.00     0.017 C 
ENDROOT
BRANCH   1  12
ATOM     12  C   UNL     1       5.416   0.992   0.000  1.00  0.00     0.075 C 
BRANCH  12  13
ATOM     13  C   UNL     1       6.748   0.304   0.000  1.00  0.00    -0.031 C 
ATOM     14  C   UNL     1       8.011   1.114   0.000  1.00  0.00     0.004 C 
ENDBRANCH  12  13
ENDBRANCH   1  12
BRANCH   1  15
ATOM     15  O   UNL     1       5.170  -0.921   0.000  1.00  0.00    -0.366 OA
ATOM     16  C   UNL     1       4.724  -2.353   0.000  1.00  0.00     0.196 C 
ENDBRANCH   1  15
BRANCH   9  17
ATOM     17  C   UNL     1      -2.047  -1.598   0.000  1.00  0.00     0.081 C 
BRANCH  17  18
ATOM     18  C   UNL     1      -3.240  -0.689   0.000  1.00  0.00    -0.040 A 
ATOM     19  C   UNL     1      -3.049   0.799   0.000  1.00  0.00     0.008 A 
ATOM     20  C   UNL     1      -4.623  -1.267   0.000  1.00  0.00     0.054 A 
ATOM     21  C   UNL     1      -4.242   1.708   0.000  1.00  0.00     0.051 A 
ATOM     22  C   UNL     1      -5.817  -0.358   0.000  1.00  0.00     0.166 A 
ATOM     23  C   UNL     1      -5.626   1.130   0.000  1.00  0.00     0.165 A 
ATOM     24  O   UNL     1      -7.291  -0.636   0.000  1.00  0.00    -0.454 OA
ATOM     25  O   UNL     1      -6.982   1.771   0.000  1.00  0.00    -0.454 OA
ATOM     26  C   UNL     1      -8.011   0.680   0.000  1.00  0.00     0.468 C 
ENDBRANCH  17  18
ENDBRANCH   9  17
TORSDOF 5
