REMARK SMILES CC(C)(O)CCc1cc(=O)c2ccc(O)cc2[nH]1
REMARK SMILES IDX 5 1 2 2 1 3 3 4 4 5 6 7 7 8 8 9 18 10 9 11 17 12 11 13 16 14
REMARK SMILES IDX 12 15 14 16 13 17 10 19 15 20
REMARK H PARENT 4 6 18 18 15 21
ROOT
ATOM      1  C   UNL     1      -3.030   0.570   0.000  1.00  0.00     0.041 C 
ENDROOT
BRANCH   1   2
ATOM      2  C   UNL     1      -4.530   0.602   0.000  1.00  0.00     0.060 C 
ATOM      3  C   UNL     1      -4.562  -0.897   0.000  1.00  0.00     0.042 C 
ATOM      4  C   UNL     1      -4.498   2.102   0.000  1.00  0.00     0.042 C 
BRANCH   2   5
ATOM      5  O   UNL     1      -6.029   0.634   0.000  1.00  0.00    -0.390 OA
ATOM      6  H   UNL     1       0.000   0.000   0.000  1.00  0.00     0.211 HD
ENDBRANCH   2   5
ENDBRANCH   1   2
BRANCH   1   7
ATOM      7  C   UNL     1      -2.308  -0.745   0.000  1.00  0.00     0.057 C 
BRANCH   7   8
ATOM      8  C   UNL     1      -0.808  -0.777   0.000  1.00  0.00     0.019 A 
ATOM      9  C   UNL     1      -0.086  -2.091   0.000  1.00  0.00     0.074 A 
ATOM     10  N   UNL     1      -0.031   0.506   0.000  1.00  0.00    -0.358 N 
ATOM     11  C   UNL     1       1.413  -2.124   0.000  1.00  0.00     0.189 A 
ATOM     12  C   UNL     1       1.469   0.474   0.000  1.00  0.00     0.053 A 
ATOM     13  C   UNL     1       2.191  -0.841   0.000  1.00  0.00     0.046 A 
ATOM     14  C   UNL     1       2.246   1.757   0.000  1.00  0.00     0.073 A 
ATOM     15  C   UNL     1       3.691  -0.873   0.000  1.00  0.00     0.018 A 
ATOM     16  C   UNL     1       3.746   1.724   0.000  1.00  0.00     0.117 A 
ATOM     17  C   UNL     1       4.468   0.410   0.000  1.00  0.00     0.047 A 
ATOM     18  H   UNL     1       0.000   0.000   0.000  1.00  0.00     0.166 HD
ATOM     19  O   UNL     1       2.135  -3.438   0.000  1.00  0.00    -0.289 OA
BRANCH  16  20
ATOM     20  O   UNL     1       4.524   3.007   0.000  1.00  0.00    -0.508 OA
ATOM     21  H   UNL     1       0.000   0.000   0.000  1.00  0.00     0.293 HD
ENDBRANCH  16  20
ENDBRANCH   7   8
ENDBRANCH   1   7
TORSDOF 5
