REMARK SMILES COC(=O)C[C@@]1(C/C=C(\C)CC/C=C(\C)CCC=C(C)C)C[C@@H](O)C=CC1=O
REMARK SMILES IDX 11 1 9 2 10 3 8 4 7 5 6 6 22 7 27 8 23 9 26 10 25 11 28 12
REMARK SMILES IDX 5 13 3 14 4 15 2 16 1 17 24 18 12 20 13 21 14 22 15 23 16 24
REMARK SMILES IDX 17 25 18 26 19 27 20 28 21 29
REMARK H PARENT 24 19
ROOT
ATOM      1  C   UNL     1      -1.110  -2.145   0.000  1.00  0.00     0.034 C 
ENDROOT
BRANCH   1   2
ATOM      2  C   UNL     1       0.373  -2.375   0.000  1.00  0.00    -0.077 C 
ATOM      3  C   UNL     1       0.915  -3.773   0.000  1.00  0.00     0.039 C 
BRANCH   2   4
ATOM      4  C   UNL     1       1.313  -1.206   0.000  1.00  0.00    -0.027 C 
BRANCH   4   5
ATOM      5  C   UNL     1       2.795  -1.436   0.000  1.00  0.00     0.043 C 
BRANCH   5   6
ATOM      6  C   UNL     1       3.735  -0.267   0.000  1.00  0.00     0.050 C 
ATOM      7  C   UNL     1       4.219   1.153   0.000  1.00  0.00     0.052 C 
ATOM      8  C   UNL     1       4.723  -1.396   0.000  1.00  0.00     0.162 C 
ATOM      9  C   UNL     1       5.690   1.444   0.000  1.00  0.00     0.138 C 
ATOM     10  C   UNL     1       6.194  -1.105   0.000  1.00  0.00     0.046 C 
ATOM     11  C   UNL     1       6.678   0.315   0.000  1.00  0.00     0.008 C 
ATOM     12  O   UNL     1       4.239  -2.816   0.000  1.00  0.00    -0.294 OA
BRANCH   6  13
ATOM     13  C   UNL     1       2.421   0.456   0.000  1.00  0.00     0.138 C 
BRANCH  13  14
ATOM     14  C   UNL     1       2.390   1.956   0.000  1.00  0.00     0.306 C 
ATOM     15  O   UNL     1       3.673   2.732   0.000  1.00  0.00    -0.252 OA
BRANCH  14  16
ATOM     16  O   UNL     1       1.075   2.679   0.000  1.00  0.00    -0.469 OA
ATOM     17  C   UNL     1       1.044   4.178   0.000  1.00  0.00     0.282 C 
ENDBRANCH  14  16
ENDBRANCH  13  14
ENDBRANCH   6  13
BRANCH   9  18
ATOM     18  O   UNL     1       6.174   2.864   0.000  1.00  0.00    -0.389 OA
ATOM     19  H   UNL     1       0.000   0.000   0.000  1.00  0.00     0.211 HD
ENDBRANCH   9  18
ENDBRANCH   5   6
ENDBRANCH   4   5
ENDBRANCH   2   4
ENDBRANCH   1   2
BRANCH   1  20
ATOM     20  C   UNL     1      -1.652  -0.746   0.000  1.00  0.00     0.032 C 
BRANCH  20  21
ATOM     21  C   UNL     1      -3.134  -0.517   0.000  1.00  0.00    -0.028 C 
BRANCH  21  22
ATOM     22  C   UNL     1      -4.074  -1.685   0.000  1.00  0.00    -0.077 C 
ATOM     23  C   UNL     1      -3.532  -3.084   0.000  1.00  0.00     0.039 C 
BRANCH  22  24
ATOM     24  C   UNL     1      -5.557  -1.456   0.000  1.00  0.00     0.034 C 
BRANCH  24  25
ATOM     25  C   UNL     1      -6.099  -0.057   0.000  1.00  0.00     0.032 C 
BRANCH  25  26
ATOM     26  C   UNL     1      -7.581   0.173   0.000  1.00  0.00    -0.028 C 
BRANCH  26  27
ATOM     27  C   UNL     1      -8.123   1.571   0.000  1.00  0.00    -0.080 C 
ATOM     28  C   UNL     1      -9.606   1.801   0.000  1.00  0.00     0.039 C 
ATOM     29  C   UNL     1      -7.183   2.740   0.000  1.00  0.00     0.039 C 
ENDBRANCH  26  27
ENDBRANCH  25  26
ENDBRANCH  24  25
ENDBRANCH  22  24
ENDBRANCH  21  22
ENDBRANCH  20  21
ENDBRANCH   1  20
TORSDOF 15
