REMARK SMILES C=C(CC[C@@H](C)[C@H]1CC[C@@]2(C)[C@@H]3CC[C@H]4[C@H](C)[C@@H](O)CC[C@@]45C[C@@]35CC[C@]12C)C(C)C
REMARK SMILES IDX 4 1 3 2 2 3 1 4 29 5 30 6 31 7 5 8 6 9 7 10 8 11 27 12 9 13
REMARK SMILES IDX 26 14 10 15 25 16 12 17 24 18 13 19 23 20 22 21 14 22 21 23
REMARK SMILES IDX 15 24 20 25 16 26 18 27 28 28 11 29 17 30 19 31
REMARK H PARENT 19 32
ROOT
ATOM      1  C   UNL     1      -4.071   0.213   0.000  1.00  0.00     0.008 C 
ENDROOT
BRANCH   1   2
ATOM      2  C   UNL     1      -5.505  -0.227   0.000  1.00  0.00     0.031 C 
BRANCH   2   3
ATOM      3  C   UNL     1      -5.840  -1.689   0.000  1.00  0.00    -0.075 C 
ATOM      4  C   UNL     1      -7.274  -2.130   0.000  1.00  0.00     0.008 C 
BRANCH   3   5
ATOM      5  C   UNL     1      -4.741  -2.711   0.000  1.00  0.00     0.008 C 
ATOM      6  C   UNL     1      -5.077  -4.173   0.000  1.00  0.00     0.012 C 
ATOM      7  C   UNL     1      -3.308  -2.270   0.000  1.00  0.00     0.012 C 
ENDBRANCH   3   5
ENDBRANCH   2   3
ENDBRANCH   1   2
BRANCH   1   8
ATOM      8  C   UNL     1      -3.736   1.675   0.000  1.00  0.00    -0.010 C 
ATOM      9  C   UNL     1      -4.834   2.697   0.000  1.00  0.00     0.008 C 
BRANCH   8  10
ATOM     10  C   UNL     1      -2.302   2.116   0.000  1.00  0.00    -0.002 C 
ATOM     11  C   UNL     1      -1.815   3.535   0.000  1.00  0.00     0.005 C 
ATOM     12  C   UNL     1      -1.103   1.215   0.000  1.00  0.00    -0.024 C 
ATOM     13  C   UNL     1      -0.316   3.511   0.000  1.00  0.00     0.008 C 
ATOM     14  C   UNL     1      -0.970  -0.279   0.000  1.00  0.00     0.008 C 
ATOM     15  C   UNL     1       0.125   2.077   0.000  1.00  0.00    -0.024 C 
ATOM     16  C   UNL     1       0.391  -0.911   0.000  1.00  0.00     0.008 C 
ATOM     17  C   UNL     1       1.485   1.446   0.000  1.00  0.00     0.002 C 
ATOM     18  C   UNL     1       1.618  -0.049   0.000  1.00  0.00    -0.020 C 
ATOM     19  C   UNL     1       2.713   2.308   0.000  1.00  0.00     0.005 C 
ATOM     20  C   UNL     1       1.751  -1.543   0.000  1.00  0.00     0.015 C 
ATOM     21  C   UNL     1       2.979  -0.680   0.000  1.00  0.00    -0.020 C 
ATOM     22  C   UNL     1       4.073   1.676   0.000  1.00  0.00     0.005 C 
ATOM     23  C   UNL     1       3.112  -2.175   0.000  1.00  0.00     0.010 C 
ATOM     24  C   UNL     1       4.206   0.182   0.000  1.00  0.00     0.001 C 
ATOM     25  C   UNL     1       4.472  -2.806   0.000  1.00  0.00     0.032 C 
ATOM     26  C   UNL     1       5.567  -0.450   0.000  1.00  0.00     0.018 C 
ATOM     27  C   UNL     1       5.700  -1.944   0.000  1.00  0.00     0.117 C 
ATOM     28  C   UNL     1      -2.413   0.486   0.000  1.00  0.00     0.012 C 
ATOM     29  C   UNL     1       1.256   3.063   0.000  1.00  0.00     0.012 C 
ATOM     30  C   UNL     1       6.794   0.412   0.000  1.00  0.00     0.011 C 
BRANCH  27  31
ATOM     31  O   UNL     1       7.060  -2.576   0.000  1.00  0.00    -0.393 OA
ATOM     32  H   UNL     1       0.000   0.000   0.000  1.00  0.00     0.210 HD
ENDBRANCH  27  31
ENDBRANCH   8  10
ENDBRANCH   1   8
TORSDOF 6
