REMARK SMILES COC1=CC(=O)O[C@@H](CCc2ccccc2)C1
REMARK SMILES IDX 3 1 4 2 5 3 6 4 7 5 8 6 17 7 2 8 1 9 9 10 10 11 11 12 12 13
REMARK SMILES IDX 16 14 13 15 15 16 14 17
REMARK H PARENT
ROOT
ATOM      1  C   UNL     1      -3.087  -0.965   0.000  1.00  0.00     0.106 C 
ATOM      2  C   UNL     1      -3.979   0.241   0.000  1.00  0.00     0.135 C 
ATOM      3  C   UNL     1      -3.380   1.617   0.000  1.00  0.00     0.334 C 
ATOM      4  O   UNL     1      -4.271   2.823   0.000  1.00  0.00    -0.247 OA
ATOM      5  O   UNL     1      -1.889   1.786   0.000  1.00  0.00    -0.459 OA
ATOM      6  C   UNL     1      -0.998   0.579   0.000  1.00  0.00     0.184 C 
ATOM      7  C   UNL     1      -1.597  -0.796   0.000  1.00  0.00     0.120 C 
ENDROOT
BRANCH   1   8
ATOM      8  O   UNL     1      -3.687  -2.340   0.000  1.00  0.00    -0.501 OA
ATOM      9  C   UNL     1      -5.177  -2.509   0.000  1.00  0.00     0.278 C 
ENDBRANCH   1   8
BRANCH   6  10
ATOM     10  C   UNL     1       0.492   0.748   0.000  1.00  0.00     0.050 C 
BRANCH  10  11
ATOM     11  C   UNL     1       1.384  -0.459   0.000  1.00  0.00     0.039 C 
BRANCH  11  12
ATOM     12  C   UNL     1       2.874  -0.290   0.000  1.00  0.00    -0.048 A 
ATOM     13  C   UNL     1       3.766  -1.496   0.000  1.00  0.00     0.004 A 
ATOM     14  C   UNL     1       3.473   1.085   0.000  1.00  0.00     0.004 A 
ATOM     15  C   UNL     1       5.256  -1.327   0.000  1.00  0.00     0.000 A 
ATOM     16  C   UNL     1       4.964   1.254   0.000  1.00  0.00     0.000 A 
ATOM     17  C   UNL     1       5.855   0.048   0.000  1.00  0.00     0.000 A 
ENDBRANCH  11  12
ENDBRANCH  10  11
ENDBRANCH   6  10
TORSDOF 4
