REMARK SMILES O=C1C=CC[C@H](/C=C/C[C@@H](O)C[C@@H](O)/C=C/c2ccccc2)O1
REMARK SMILES IDX 10 1 9 2 8 3 7 4 6 5 2 6 3 7 23 8 4 9 5 10 1 11 11 12 12 14
REMARK SMILES IDX 13 15 14 16 15 18 16 19 17 20 18 21 22 22 19 23 21 24 20 25
REMARK H PARENT 11 13 14 17
ROOT
ATOM      1  C   UNL     1      -0.395   0.033   0.000  1.00  0.00     0.121 C 
ENDROOT
BRANCH   1   2
ATOM      2  C   UNL     1      -1.554   0.985   0.000  1.00  0.00     0.059 C 
BRANCH   2   3
ATOM      3  C   UNL     1      -2.958   0.459   0.000  1.00  0.00    -0.025 C 
BRANCH   3   4
ATOM      4  C   UNL     1      -4.117   1.411   0.000  1.00  0.00     0.013 C 
BRANCH   4   5
ATOM      5  C   UNL     1      -5.521   0.884   0.000  1.00  0.00     0.203 C 
ATOM      6  C   UNL     1      -7.171  -1.122   0.000  1.00  0.00     0.331 C 
ATOM      7  C   UNL     1      -8.330  -0.170   0.000  1.00  0.00     0.089 C 
ATOM      8  O   UNL     1      -5.767  -0.595   0.000  1.00  0.00    -0.455 OA
ATOM      9  C   UNL     1      -8.084   1.310   0.000  1.00  0.00    -0.015 C 
ATOM     10  C   UNL     1      -6.680   1.837   0.000  1.00  0.00     0.077 C 
ATOM     11  O   UNL     1      -7.417  -2.602   0.000  1.00  0.00    -0.247 OA
ENDBRANCH   4   5
ENDBRANCH   3   4
ENDBRANCH   2   3
ENDBRANCH   1   2
BRANCH   1  12
ATOM     12  O   UNL     1      -0.641  -1.447   0.000  1.00  0.00    -0.393 OA
ATOM     13  H   UNL     1       0.000   0.000   0.000  1.00  0.00     0.210 HD
ENDBRANCH   1  12
BRANCH   1  14
ATOM     14  C   UNL     1       1.009   0.560   0.000  1.00  0.00     0.068 C 
BRANCH  14  15
ATOM     15  C   UNL     1       2.168  -0.393   0.000  1.00  0.00     0.140 C 
BRANCH  15  16
ATOM     16  O   UNL     1       1.922  -1.873   0.000  1.00  0.00    -0.389 OA
ATOM     17  H   UNL     1       0.000   0.000   0.000  1.00  0.00     0.211 HD
ENDBRANCH  15  16
BRANCH  15  18
ATOM     18  C   UNL     1       3.572   0.134   0.000  1.00  0.00     0.005 C 
BRANCH  18  19
ATOM     19  C   UNL     1       4.731  -0.819   0.000  1.00  0.00     0.006 C 
BRANCH  19  20
ATOM     20  C   UNL     1       6.135  -0.292   0.000  1.00  0.00    -0.026 A 
ATOM     21  C   UNL     1       7.293  -1.245   0.000  1.00  0.00     0.008 A 
ATOM     22  C   UNL     1       6.381   1.188   0.000  1.00  0.00     0.008 A 
ATOM     23  C   UNL     1       8.698  -0.718   0.000  1.00  0.00     0.001 A 
ATOM     24  C   UNL     1       7.785   1.714   0.000  1.00  0.00     0.001 A 
ATOM     25  C   UNL     1       8.944   0.762   0.000  1.00  0.00     0.000 A 
ENDBRANCH  19  20
ENDBRANCH  18  19
ENDBRANCH  15  18
ENDBRANCH  14  15
ENDBRANCH   1  14
TORSDOF 11
