REMARK SMILES O=c1cc(-c2ccc(O)c(O)c2)oc2c([C@@H]3OC[C@H](O)[C@H](O)[C@H]3O)c(O)c([C@@H]3O[C@H](CO)[C@@H](O)[C@H](O)[C@H]3O)c(O)c12
REMARK SMILES IDX 1 1 2 2 3 3 4 4 13 5 14 6 15 7 25 8 27 9 39 10 41 11 5 12
REMARK SMILES IDX 6 13 12 14 7 15 10 16 8 17 11 18 9 20 40 22 28 24 29 25
REMARK SMILES IDX 37 26 30 27 35 28 33 29 38 30 31 32 32 33 36 35 34 37 16 39
REMARK SMILES IDX 17 40 23 41 18 42 21 43 19 44 24 45 22 47 20 49 26 51
REMARK H PARENT 11 19 9 21 40 23 38 31 32 34 36 36 34 38 24 46 22 48 20 50
REMARK H PARENT 26 52
ROOT
ATOM      1  O   UNL     1       0.113  -4.154   0.000  1.00  0.00    -0.289 OA
ATOM      2  C   UNL     1      -0.609  -2.839   0.000  1.00  0.00     0.197 A 
ATOM      3  C   UNL     1      -2.109  -2.807   0.000  1.00  0.00     0.100 A 
ATOM      4  C   UNL     1      -2.831  -1.493   0.000  1.00  0.00     0.138 A 
ATOM      5  O   UNL     1      -2.054  -0.210   0.000  1.00  0.00    -0.455 OA
ATOM      6  C   UNL     1      -0.554  -0.242   0.000  1.00  0.00     0.152 A 
ATOM      7  C   UNL     1       0.223   1.041   0.000  1.00  0.00     0.069 A 
ATOM      8  C   UNL     1       1.723   1.009   0.000  1.00  0.00     0.134 A 
ATOM      9  C   UNL     1       2.445  -0.305   0.000  1.00  0.00     0.068 A 
ATOM     10  C   UNL     1       1.668  -1.588   0.000  1.00  0.00     0.140 A 
ATOM     11  C   UNL     1       0.168  -1.556   0.000  1.00  0.00     0.107 A 
ENDROOT
BRANCH   4  12
ATOM     12  C   UNL     1      -4.331  -1.461   0.000  1.00  0.00     0.021 A 
ATOM     13  C   UNL     1      -5.053  -0.146   0.000  1.00  0.00     0.016 A 
ATOM     14  C   UNL     1      -5.108  -2.744   0.000  1.00  0.00     0.062 A 
ATOM     15  C   UNL     1      -6.553  -0.114   0.000  1.00  0.00     0.051 A 
ATOM     16  C   UNL     1      -6.608  -2.712   0.000  1.00  0.00     0.158 A 
ATOM     17  C   UNL     1      -7.330  -1.397   0.000  1.00  0.00     0.157 A 
BRANCH  16  18
ATOM     18  O   UNL     1      -7.385  -3.995   0.000  1.00  0.00    -0.504 OA
ATOM     19  H   UNL     1       0.000   0.000   0.000  1.00  0.00     0.293 HD
ENDBRANCH  16  18
BRANCH  17  20
ATOM     20  O   UNL     1      -8.830  -1.365   0.000  1.00  0.00    -0.504 OA
ATOM     21  H   UNL     1       0.000   0.000   0.000  1.00  0.00     0.293 HD
ENDBRANCH  17  20
ENDBRANCH   4  12
BRANCH  10  22
ATOM     22  O   UNL     1       2.390  -2.903   0.000  1.00  0.00    -0.506 OA
ATOM     23  H   UNL     1       0.000   0.000   0.000  1.00  0.00     0.293 HD
ENDBRANCH  10  22
BRANCH   9  24
ATOM     24  C   UNL     1       3.945  -0.337   0.000  1.00  0.00     0.188 C 
ATOM     25  O   UNL     1       4.667  -1.652   0.000  1.00  0.00    -0.362 OA
ATOM     26  C   UNL     1       4.722   0.946   0.000  1.00  0.00     0.179 C 
ATOM     27  C   UNL     1       6.167  -1.684   0.000  1.00  0.00     0.176 C 
ATOM     28  C   UNL     1       6.222   0.914   0.000  1.00  0.00     0.177 C 
ATOM     29  C   UNL     1       6.944  -0.401   0.000  1.00  0.00     0.177 C 
BRANCH  26  30
ATOM     30  O   UNL     1       4.000   2.260   0.000  1.00  0.00    -0.387 OA
ATOM     31  H   UNL     1       0.000   0.000   0.000  1.00  0.00     0.211 HD
ENDBRANCH  26  30
BRANCH  27  32
ATOM     32  C   UNL     1       6.889  -2.998   0.000  1.00  0.00     0.191 C 
BRANCH  32  33
ATOM     33  O   UNL     1       6.112  -4.281   0.000  1.00  0.00    -0.394 OA
ATOM     34  H   UNL     1       0.000   0.000   0.000  1.00  0.00     0.210 HD
ENDBRANCH  32  33
ENDBRANCH  27  32
BRANCH  28  35
ATOM     35  O   UNL     1       6.999   2.197   0.000  1.00  0.00    -0.387 OA
ATOM     36  H   UNL     1       0.000   0.000   0.000  1.00  0.00     0.211 HD
ENDBRANCH  28  35
BRANCH  29  37
ATOM     37  O   UNL     1       8.444  -0.433   0.000  1.00  0.00    -0.388 OA
ATOM     38  H   UNL     1       0.000   0.000   0.000  1.00  0.00     0.211 HD
ENDBRANCH  29  37
ENDBRANCH   9  24
BRANCH   7  39
ATOM     39  C   UNL     1      -0.499   2.356   0.000  1.00  0.00     0.187 C 
ATOM     40  O   UNL     1       0.279   3.639   0.000  1.00  0.00    -0.368 OA
ATOM     41  C   UNL     1      -1.999   2.388   0.000  1.00  0.00     0.179 C 
ATOM     42  C   UNL     1      -0.444   4.953   0.000  1.00  0.00     0.195 C 
ATOM     43  C   UNL     1      -2.721   3.702   0.000  1.00  0.00     0.177 C 
ATOM     44  C   UNL     1      -1.943   4.985   0.000  1.00  0.00     0.171 C 
BRANCH  41  45
ATOM     45  O   UNL     1      -2.776   1.105   0.000  1.00  0.00    -0.387 OA
ATOM     46  H   UNL     1       0.000   0.000   0.000  1.00  0.00     0.211 HD
ENDBRANCH  41  45
BRANCH  43  47
ATOM     47  O   UNL     1      -4.221   3.734   0.000  1.00  0.00    -0.387 OA
ATOM     48  H   UNL     1       0.000   0.000   0.000  1.00  0.00     0.211 HD
ENDBRANCH  43  47
BRANCH  44  49
ATOM     49  O   UNL     1      -2.666   6.300   0.000  1.00  0.00    -0.388 OA
ATOM     50  H   UNL     1       0.000   0.000   0.000  1.00  0.00     0.211 HD
ENDBRANCH  44  49
ENDBRANCH   7  39
BRANCH   8  51
ATOM     51  O   UNL     1       2.500   2.292   0.000  1.00  0.00    -0.507 OA
ATOM     52  H   UNL     1       0.000   0.000   0.000  1.00  0.00     0.293 HD
ENDBRANCH   8  51
TORSDOF 15
