REMARK SMILES O=C1C[C@H](c2ccccc2)Oc2cc(O)ccc21
REMARK SMILES IDX 1 1 2 2 3 3 4 4 11 5 12 6 13 7 14 8 16 9 17 10 18 11 5 12
REMARK SMILES IDX 6 13 10 14 7 15 9 16 8 17 15 18
REMARK H PARENT 15 19
ROOT
ATOM      1  O   UNL     1       1.357   3.418   0.000  1.00  0.00    -0.294 OA
ATOM      2  C   UNL     1       0.915   1.985   0.000  1.00  0.00     0.170 C 
ATOM      3  C   UNL     1      -0.548   1.652   0.000  1.00  0.00     0.131 C 
ATOM      4  C   UNL     1      -0.990   0.218   0.000  1.00  0.00     0.211 C 
ATOM      5  O   UNL     1       0.030  -0.881   0.000  1.00  0.00    -0.484 OA
ATOM      6  C   UNL     1       1.493  -0.548   0.000  1.00  0.00     0.134 A 
ATOM      7  C   UNL     1       2.513  -1.647   0.000  1.00  0.00     0.093 A 
ATOM      8  C   UNL     1       3.975  -1.314   0.000  1.00  0.00     0.119 A 
ATOM      9  C   UNL     1       4.417   0.119   0.000  1.00  0.00     0.047 A 
ATOM     10  C   UNL     1       3.397   1.219   0.000  1.00  0.00     0.019 A 
ATOM     11  C   UNL     1       1.935   0.885   0.000  1.00  0.00     0.060 A 
ENDROOT
BRANCH   4  12
ATOM     12  C   UNL     1      -2.452  -0.115   0.000  1.00  0.00    -0.007 A 
ATOM     13  C   UNL     1      -3.473   0.984   0.000  1.00  0.00     0.007 A 
ATOM     14  C   UNL     1      -2.895  -1.549   0.000  1.00  0.00     0.007 A 
ATOM     15  C   UNL     1      -4.935   0.651   0.000  1.00  0.00     0.000 A 
ATOM     16  C   UNL     1      -4.357  -1.882   0.000  1.00  0.00     0.000 A 
ATOM     17  C   UNL     1      -5.377  -0.783   0.000  1.00  0.00     0.000 A 
ENDBRANCH   4  12
BRANCH   8  18
ATOM     18  O   UNL     1       4.995  -2.413   0.000  1.00  0.00    -0.508 OA
ATOM     19  H   UNL     1       0.000   0.000   0.000  1.00  0.00     0.293 HD
ENDBRANCH   8  18
TORSDOF 2
