REMARK SMILES CC(C)=CCNC(=N)NCC=C(C)C
REMARK SMILES IDX 6 1 7 2 9 3 5 6 4 7 2 8 1 9 3 10 8 11 10 13 11 14 12 15
REMARK SMILES IDX 13 16 14 17
REMARK H PARENT 6 4 9 5 8 12
ROOT
ATOM      1  N   UNL     1      -1.299   0.750   0.000  1.00  0.00    -0.353 N 
ATOM      2  C   UNL     1      -0.000   0.000   0.000  1.00  0.00     0.188 C 
ATOM      3  N   UNL     1       1.299   0.750   0.000  1.00  0.00    -0.353 N 
ATOM      4  H   UNL     1       0.000   0.000   0.000  1.00  0.00     0.163 HD
ATOM      5  H   UNL     1       0.000   0.000   0.000  1.00  0.00     0.163 HD
ENDROOT
BRANCH   1   6
ATOM      6  C   UNL     1      -2.598   0.000   0.000  1.00  0.00     0.143 C 
BRANCH   6   7
ATOM      7  C   UNL     1      -3.897   0.750   0.000  1.00  0.00    -0.007 C 
BRANCH   7   8
ATOM      8  C   UNL     1      -5.196   0.000   0.000  1.00  0.00    -0.079 C 
ATOM      9  C   UNL     1      -6.495   0.750   0.000  1.00  0.00     0.039 C 
ATOM     10  C   UNL     1      -5.196  -1.500   0.000  1.00  0.00     0.039 C 
ENDBRANCH   7   8
ENDBRANCH   6   7
ENDBRANCH   1   6
BRANCH   2  11
ATOM     11  N   UNL     1      -0.000  -1.500   0.000  1.00  0.00    -0.269 NA
ATOM     12  H   UNL     1       0.000   0.000   0.000  1.00  0.00     0.191 HD
ENDBRANCH   2  11
BRANCH   3  13
ATOM     13  C   UNL     1       2.598   0.000   0.000  1.00  0.00     0.143 C 
BRANCH  13  14
ATOM     14  C   UNL     1       3.897   0.750   0.000  1.00  0.00    -0.007 C 
BRANCH  14  15
ATOM     15  C   UNL     1       5.196   0.000   0.000  1.00  0.00    -0.079 C 
ATOM     16  C   UNL     1       6.495   0.750   0.000  1.00  0.00     0.039 C 
ATOM     17  C   UNL     1       5.196  -1.500   0.000  1.00  0.00     0.039 C 
ENDBRANCH  14  15
ENDBRANCH  13  14
ENDBRANCH   3  13
TORSDOF 7
