REMARK SMILES O=c1c2cccc(O)c2nc2n1CCc1c-2[nH]c2ccccc12
REMARK SMILES IDX 1 1 2 2 3 3 4 4 5 5 6 6 7 7 9 8 10 9 11 10 16 11 15 12 14 13
REMARK SMILES IDX 13 14 12 15 23 16 22 17 21 18 20 19 19 20 18 21 17 22 8 24
REMARK H PARENT 17 23 8 25
ROOT
ATOM      1  O   UNL     1      -2.755  -3.170   0.000  1.00  0.00    -0.269 OA
ATOM      2  C   UNL     1      -2.259  -1.754   0.000  1.00  0.00     0.261 A 
ATOM      3  C   UNL     1      -3.236  -0.617   0.000  1.00  0.00     0.070 A 
ATOM      4  C   UNL     1      -4.711  -0.894   0.000  1.00  0.00     0.016 A 
ATOM      5  C   UNL     1      -5.688   0.243   0.000  1.00  0.00     0.005 A 
ATOM      6  C   UNL     1      -5.192   1.659   0.000  1.00  0.00     0.048 A 
ATOM      7  C   UNL     1      -3.718   1.936   0.000  1.00  0.00     0.142 A 
ATOM      8  C   UNL     1      -2.740   0.799   0.000  1.00  0.00     0.120 A 
ATOM      9  N   UNL     1      -1.266   1.077   0.000  1.00  0.00    -0.224 NA
ATOM     10  C   UNL     1      -0.288  -0.061   0.000  1.00  0.00     0.160 A 
ATOM     11  C   UNL     1       1.186   0.217   0.000  1.00  0.00     0.086 A 
ATOM     12  C   UNL     1       2.163  -0.921   0.000  1.00  0.00    -0.010 A 
ATOM     13  C   UNL     1       1.667  -2.336   0.000  1.00  0.00     0.060 C 
ATOM     14  C   UNL     1       0.193  -2.614   0.000  1.00  0.00     0.132 C 
ATOM     15  N   UNL     1      -0.785  -1.476   0.000  1.00  0.00    -0.291 N 
ATOM     16  C   UNL     1       3.547  -0.343   0.000  1.00  0.00     0.003 A 
ATOM     17  C   UNL     1       4.903  -0.984   0.000  1.00  0.00     0.010 A 
ATOM     18  C   UNL     1       6.137  -0.131   0.000  1.00  0.00     0.001 A 
ATOM     19  C   UNL     1       6.015   1.364   0.000  1.00  0.00     0.002 A 
ATOM     20  C   UNL     1       4.659   2.006   0.000  1.00  0.00     0.027 A 
ATOM     21  C   UNL     1       3.425   1.152   0.000  1.00  0.00     0.046 A 
ATOM     22  N   UNL     1       1.966   1.498   0.000  1.00  0.00    -0.352 N 
ATOM     23  H   UNL     1       0.000   0.000   0.000  1.00  0.00     0.167 HD
ENDROOT
BRANCH   7  24
ATOM     24  O   UNL     1      -3.221   3.352   0.000  1.00  0.00    -0.506 OA
ATOM     25  H   UNL     1       0.000   0.000   0.000  1.00  0.00     0.293 HD
ENDBRANCH   7  24
TORSDOF 1
