REMARK SMILES CC1=CCC(=C(C)C)CC1
REMARK SMILES IDX 1 1 2 2 3 3 4 4 5 5 9 6 10 7 6 8 7 9 8 10
REMARK H PARENT
ROOT
ATOM      1  C   UNL     1       3.750   0.000   0.000  1.00  0.00     0.039 C 
ATOM      2  C   UNL     1       2.250  -0.000   0.000  1.00  0.00    -0.077 C 
ATOM      3  C   UNL     1       1.500  -1.299   0.000  1.00  0.00    -0.024 C 
ATOM      4  C   UNL     1      -0.000  -1.299   0.000  1.00  0.00     0.058 C 
ATOM      5  C   UNL     1      -0.750   0.000   0.000  1.00  0.00    -0.067 C 
ATOM      6  C   UNL     1       0.000   1.299   0.000  1.00  0.00     0.035 C 
ATOM      7  C   UNL     1       1.500   1.299   0.000  1.00  0.00     0.035 C 
ENDROOT
BRANCH   5   8
ATOM      8  C   UNL     1      -2.250   0.000   0.000  1.00  0.00    -0.077 C 
ATOM      9  C   UNL     1      -3.000   1.299   0.000  1.00  0.00     0.039 C 
ATOM     10  C   UNL     1      -3.000  -1.299   0.000  1.00  0.00     0.039 C 
ENDBRANCH   5   8
TORSDOF 1
