REMARK SMILES C=CC[C@@]12C[C@H](OC)C(=O)[C@](OC)([C@H](c3ccc4c(c3)OCO4)[C@H]1C)[C@@H]2OC(=C)C
REMARK SMILES IDX 4 1 5 2 6 3 9 4 10 5 11 6 14 7 24 8 25 9 26 10 3 11 2 12
REMARK SMILES IDX 1 13 27 14 28 15 29 16 30 17 7 18 8 19 15 20 16 21 20 22
REMARK SMILES IDX 17 23 19 24 18 25 21 26 23 27 22 28 12 29 13 30
REMARK H PARENT
ROOT
ATOM      1  C   UNL     1       2.246   0.957   0.000  1.00  0.00     0.020 C 
ATOM      2  C   UNL     1       3.597   0.305   0.000  1.00  0.00     0.052 C 
ATOM      3  C   UNL     1       3.707  -1.191   0.000  1.00  0.00     0.188 C 
ATOM      4  C   UNL     1       2.467  -2.035   0.000  1.00  0.00     0.197 C 
ATOM      5  O   UNL     1       2.577  -3.531   0.000  1.00  0.00    -0.293 OA
ATOM      6  C   UNL     1       1.116  -1.382   0.000  1.00  0.00     0.172 C 
ATOM      7  C   UNL     1       0.033  -0.344   0.000  1.00  0.00     0.067 C 
ATOM      8  C   UNL     1       0.686   1.006   0.000  1.00  0.00     0.007 C 
ATOM      9  C   UNL     1       0.317   2.461   0.000  1.00  0.00     0.009 C 
ATOM     10  C   UNL     1       1.006   0.114   0.000  1.00  0.00     0.220 C 
ENDROOT
BRANCH   1  11
ATOM     11  C   UNL     1       2.136   2.453   0.000  1.00  0.00     0.038 C 
BRANCH  11  12
ATOM     12  C   UNL     1       3.376   3.297   0.000  1.00  0.00    -0.034 C 
ATOM     13  C   UNL     1       3.266   4.793   0.000  1.00  0.00     0.004 C 
ENDBRANCH  11  12
ENDBRANCH   1  11
BRANCH  10  14
ATOM     14  O   UNL     1      -0.345   0.766   0.000  1.00  0.00    -0.492 OA
BRANCH  14  15
ATOM     15  C   UNL     1      -0.455   2.262   0.000  1.00  0.00     0.086 C 
ATOM     16  C   UNL     1       0.785   3.106   0.000  1.00  0.00     0.053 C 
ATOM     17  C   UNL     1      -1.806   2.915   0.000  1.00  0.00     0.086 C 
ENDBRANCH  14  15
ENDBRANCH  10  14
BRANCH   3  18
ATOM     18  O   UNL     1       5.058  -1.844   0.000  1.00  0.00    -0.374 OA
ATOM     19  C   UNL     1       5.168  -3.340   0.000  1.00  0.00     0.195 C 
ENDBRANCH   3  18
BRANCH   7  20
ATOM     20  C   UNL     1      -1.443  -0.610   0.000  1.00  0.00    -0.037 A 
ATOM     21  C   UNL     1      -1.951  -2.022   0.000  1.00  0.00     0.008 A 
ATOM     22  C   UNL     1      -2.412   0.535   0.000  1.00  0.00     0.054 A 
ATOM     23  C   UNL     1      -3.427  -2.288   0.000  1.00  0.00     0.051 A 
ATOM     24  C   UNL     1      -3.888   0.269   0.000  1.00  0.00     0.166 A 
ATOM     25  C   UNL     1      -4.396  -1.142   0.000  1.00  0.00     0.165 A 
ATOM     26  O   UNL     1      -5.073   1.188   0.000  1.00  0.00    -0.454 OA
ATOM     27  O   UNL     1      -5.895  -1.096   0.000  1.00  0.00    -0.454 OA
ATOM     28  C   UNL     1      -6.314   0.345   0.000  1.00  0.00     0.468 C 
ENDBRANCH   7  20
BRANCH   6  29
ATOM     29  O   UNL     1      -0.124  -2.226   0.000  1.00  0.00    -0.366 OA
ATOM     30  C   UNL     1      -0.014  -3.722   0.000  1.00  0.00     0.196 C 
ENDBRANCH   6  29
TORSDOF 7
