REMARK SMILES COC(=O)C[C@@H]1C(C(=O)OC)=CO[C@@H](O[C@@H]2O[C@H](CO)[C@@H](O)[C@H](O)[C@H]2O)[C@@H]1[C@H](C)OC(C)=O
REMARK SMILES IDX 6 1 7 2 12 3 13 4 14 5 27 6 5 7 3 8 4 9 2 10 1 11 8 12 9 13
REMARK SMILES IDX 10 14 11 15 28 16 29 17 30 18 31 19 32 20 33 21 15 22 16 23
REMARK SMILES IDX 17 24 25 25 18 26 23 27 21 28 26 29 19 31 20 32 24 34 22 36
REMARK H PARENT 26 30 20 33 24 35 22 37
ROOT
ATOM      1  C   UNL     1      -2.095   0.064   0.000  1.00  0.00     0.054 C 
ATOM      2  C   UNL     1      -2.003   1.561   0.000  1.00  0.00     0.076 C 
ATOM      3  C   UNL     1      -0.661   2.231   0.000  1.00  0.00     0.202 C 
ATOM      4  O   UNL     1       0.590   1.403   0.000  1.00  0.00    -0.471 OA
ATOM      5  C   UNL     1       0.499  -0.094   0.000  1.00  0.00     0.316 C 
ATOM      6  C   UNL     1      -0.844  -0.763   0.000  1.00  0.00     0.107 C 
ENDROOT
BRANCH   1   7
ATOM      7  C   UNL     1      -3.437  -0.606   0.000  1.00  0.00     0.132 C 
BRANCH   7   8
ATOM      8  C   UNL     1      -4.688   0.222   0.000  1.00  0.00     0.306 C 
ATOM      9  O   UNL     1      -4.748   1.204   0.000  1.00  0.00    -0.252 OA
BRANCH   8  10
ATOM     10  O   UNL     1      -6.030  -0.448   0.000  1.00  0.00    -0.469 OA
ATOM     11  C   UNL     1      -7.281   0.380   0.000  1.00  0.00     0.282 C 
ENDBRANCH   8  10
ENDBRANCH   7   8
ENDBRANCH   1   7
BRANCH   2  12
ATOM     12  C   UNL     1      -3.254   2.389   0.000  1.00  0.00     0.337 C 
ATOM     13  O   UNL     1      -4.182   2.060   0.000  1.00  0.00    -0.246 OA
BRANCH  12  14
ATOM     14  O   UNL     1      -3.163   3.886   0.000  1.00  0.00    -0.466 OA
ATOM     15  C   UNL     1      -4.414   4.714   0.000  1.00  0.00     0.282 C 
ENDBRANCH  12  14
ENDBRANCH   2  12
BRANCH   6  16
ATOM     16  C   UNL     1      -0.935  -2.261   0.000  1.00  0.00     0.183 C 
ATOM     17  C   UNL     1       0.316  -3.088   0.000  1.00  0.00     0.053 C 
BRANCH  16  18
ATOM     18  O   UNL     1      -2.277  -2.930   0.000  1.00  0.00    -0.462 OA
BRANCH  18  19
ATOM     19  C   UNL     1      -2.368  -4.428   0.000  1.00  0.00     0.302 C 
ATOM     20  C   UNL     1      -3.710  -5.097   0.000  1.00  0.00     0.139 C 
ATOM     21  O   UNL     1      -1.117  -5.255   0.000  1.00  0.00    -0.253 OA
ENDBRANCH  18  19
ENDBRANCH  16  18
ENDBRANCH   6  16
BRANCH   5  22
ATOM     22  O   UNL     1       1.750  -0.921   0.000  1.00  0.00    -0.310 OA
BRANCH  22  23
ATOM     23  C   UNL     1       3.092  -0.252   0.000  1.00  0.00     0.286 C 
ATOM     24  O   UNL     1       4.343  -1.079   0.000  1.00  0.00    -0.341 OA
ATOM     25  C   UNL     1       3.183   1.245   0.000  1.00  0.00     0.202 C 
ATOM     26  C   UNL     1       5.685  -0.410   0.000  1.00  0.00     0.178 C 
ATOM     27  C   UNL     1       4.525   1.915   0.000  1.00  0.00     0.179 C 
ATOM     28  C   UNL     1       5.776   1.087   0.000  1.00  0.00     0.177 C 
BRANCH  25  29
ATOM     29  O   UNL     1       1.932   2.073   0.000  1.00  0.00    -0.385 OA
ATOM     30  H   UNL     1       0.000   0.000   0.000  1.00  0.00     0.211 HD
ENDBRANCH  25  29
BRANCH  26  31
ATOM     31  C   UNL     1       6.936  -1.237   0.000  1.00  0.00     0.191 C 
BRANCH  31  32
ATOM     32  O   UNL     1       6.845  -2.735   0.000  1.00  0.00    -0.394 OA
ATOM     33  H   UNL     1       0.000   0.000   0.000  1.00  0.00     0.210 HD
ENDBRANCH  31  32
ENDBRANCH  26  31
BRANCH  27  34
ATOM     34  O   UNL     1       4.617   3.412   0.000  1.00  0.00    -0.387 OA
ATOM     35  H   UNL     1       0.000   0.000   0.000  1.00  0.00     0.211 HD
ENDBRANCH  27  34
BRANCH  28  36
ATOM     36  O   UNL     1       7.119   1.757   0.000  1.00  0.00    -0.387 OA
ATOM     37  H   UNL     1       0.000   0.000   0.000  1.00  0.00     0.211 HD
ENDBRANCH  28  36
ENDBRANCH  22  23
ENDBRANCH   5  22
TORSDOF 15
