REMARK SMILES COc1c2ccoc2cc2oc(=O)ccc12
REMARK SMILES IDX 3 1 4 2 5 3 6 4 7 5 8 6 9 7 10 8 16 9 15 10 14 11 12 12
REMARK SMILES IDX 13 13 11 14 2 15 1 16
REMARK H PARENT
ROOT
ATOM      1  C   UNL     1      -0.734  -1.036   0.000  1.00  0.00     0.140 A 
ATOM      2  C   UNL     1      -1.837  -0.020   0.000  1.00  0.00     0.063 A 
ATOM      3  C   UNL     1      -3.331  -0.160   0.000  1.00  0.00     0.054 A 
ATOM      4  C   UNL     1      -3.925   1.218   0.000  1.00  0.00     0.196 A 
ATOM      5  O   UNL     1      -2.799   2.208   0.000  1.00  0.00    -0.464 OA
ATOM      6  C   UNL     1      -1.509   1.444   0.000  1.00  0.00     0.141 A 
ATOM      7  C   UNL     1      -0.077   1.891   0.000  1.00  0.00     0.095 A 
ATOM      8  C   UNL     1       1.026   0.875   0.000  1.00  0.00     0.145 A 
ATOM      9  C   UNL     1       0.698  -0.589   0.000  1.00  0.00     0.061 A 
ATOM     10  C   UNL     1       1.801  -1.605   0.000  1.00  0.00     0.023 A 
ATOM     11  C   UNL     1       3.233  -1.158   0.000  1.00  0.00     0.095 A 
ATOM     12  C   UNL     1       3.561   0.305   0.000  1.00  0.00     0.336 A 
ATOM     13  O   UNL     1       4.993   0.753   0.000  1.00  0.00    -0.246 OA
ATOM     14  O   UNL     1       2.458   1.322   0.000  1.00  0.00    -0.422 OA
ENDROOT
BRANCH   1  15
ATOM     15  O   UNL     1      -1.063  -2.500   0.000  1.00  0.00    -0.495 OA
ATOM     16  C   UNL     1      -2.494  -2.947   0.000  1.00  0.00     0.278 C 
ENDBRANCH   1  15
TORSDOF 1
