REMARK SMILES O=C(O)CCC=CCCCc1ccccc1
REMARK SMILES IDX 6 1 5 2 4 3 2 4 1 5 3 6 7 8 8 9 9 10 10 11 11 12 12 13 16 14
REMARK SMILES IDX 13 15 15 16 14 17
REMARK H PARENT 3 7
ROOT
ATOM      1  C   UNL     1      -2.731  -0.716   0.000  1.00  0.00    -0.031 C 
ENDROOT
BRANCH   1   2
ATOM      2  C   UNL     1      -3.979   0.116   0.000  1.00  0.00     0.039 C 
BRANCH   2   3
ATOM      3  C   UNL     1      -5.324  -0.549   0.000  1.00  0.00     0.126 C 
BRANCH   3   4
ATOM      4  C   UNL     1      -6.572   0.283   0.000  1.00  0.00     0.303 C 
ATOM      5  O   UNL     1      -6.475   1.780   0.000  1.00  0.00    -0.252 OA
BRANCH   4   6
ATOM      6  O   UNL     1      -7.916  -0.382   0.000  1.00  0.00    -0.481 OA
ATOM      7  H   UNL     1       0.000   0.000   0.000  1.00  0.00     0.296 HD
ENDBRANCH   4   6
ENDBRANCH   3   4
ENDBRANCH   2   3
ENDBRANCH   1   2
BRANCH   1   8
ATOM      8  C   UNL     1      -1.386  -0.051   0.000  1.00  0.00    -0.031 C 
BRANCH   8   9
ATOM      9  C   UNL     1      -0.138  -0.883   0.000  1.00  0.00     0.027 C 
BRANCH   9  10
ATOM     10  C   UNL     1       1.206  -0.219   0.000  1.00  0.00     0.009 C 
BRANCH  10  11
ATOM     11  C   UNL     1       2.454  -1.051   0.000  1.00  0.00     0.036 C 
BRANCH  11  12
ATOM     12  C   UNL     1       3.799  -0.386   0.000  1.00  0.00    -0.048 A 
ATOM     13  C   UNL     1       3.896   1.111   0.000  1.00  0.00     0.004 A 
ATOM     14  C   UNL     1       5.047  -1.218   0.000  1.00  0.00     0.004 A 
ATOM     15  C   UNL     1       5.240   1.776   0.000  1.00  0.00     0.000 A 
ATOM     16  C   UNL     1       6.392  -0.553   0.000  1.00  0.00     0.000 A 
ATOM     17  C   UNL     1       6.488   0.943   0.000  1.00  0.00     0.000 A 
ENDBRANCH  11  12
ENDBRANCH  10  11
ENDBRANCH   9  10
ENDBRANCH   8   9
ENDBRANCH   1   8
TORSDOF 9
