REMARK SMILES O=C(O)CCCCCCCCCCCCCCCCc1ccc2c(c1)OCO2
REMARK SMILES IDX 10 1 9 2 8 3 7 4 6 5 5 6 4 7 2 8 1 9 3 10 11 12 12 13 13 14
REMARK SMILES IDX 14 15 15 16 16 17 17 18 18 19 19 20 20 21 21 22 25 23 22 24
REMARK SMILES IDX 24 25 23 26 26 27 28 28 27 29
REMARK H PARENT 3 11
ROOT
ATOM      1  C   UNL     1       4.998  -0.352   0.000  1.00  0.00     0.000 C 
ENDROOT
BRANCH   1   2
ATOM      2  C   UNL     1       6.335   0.326   0.000  1.00  0.00     0.000 C 
BRANCH   2   3
ATOM      3  C   UNL     1       7.592  -0.494   0.000  1.00  0.00     0.000 C 
BRANCH   3   4
ATOM      4  C   UNL     1       8.930   0.185   0.000  1.00  0.00     0.000 C 
BRANCH   4   5
ATOM      5  C   UNL     1      10.186  -0.635   0.000  1.00  0.00     0.001 C 
BRANCH   5   6
ATOM      6  C   UNL     1      11.524   0.043   0.000  1.00  0.00     0.012 C 
BRANCH   6   7
ATOM      7  C   UNL     1      12.780  -0.776   0.000  1.00  0.00     0.122 C 
BRANCH   7   8
ATOM      8  C   UNL     1      14.118  -0.098   0.000  1.00  0.00     0.303 C 
ATOM      9  O   UNL     1      14.200   1.400   0.000  1.00  0.00    -0.252 OA
BRANCH   8  10
ATOM     10  O   UNL     1      15.374  -0.917   0.000  1.00  0.00    -0.481 OA
ATOM     11  H   UNL     1       0.000   0.000   0.000  1.00  0.00     0.296 HD
ENDBRANCH   8  10
ENDBRANCH   7   8
ENDBRANCH   6   7
ENDBRANCH   5   6
ENDBRANCH   4   5
ENDBRANCH   3   4
ENDBRANCH   2   3
ENDBRANCH   1   2
BRANCH   1  12
ATOM     12  C   UNL     1       3.741   0.467   0.000  1.00  0.00     0.000 C 
BRANCH  12  13
ATOM     13  C   UNL     1       2.403  -0.211   0.000  1.00  0.00     0.000 C 
BRANCH  13  14
ATOM     14  C   UNL     1       1.147   0.608   0.000  1.00  0.00     0.000 C 
BRANCH  14  15
ATOM     15  C   UNL     1      -0.191  -0.070   0.000  1.00  0.00     0.000 C 
BRANCH  15  16
ATOM     16  C   UNL     1      -1.447   0.749   0.000  1.00  0.00     0.000 C 
BRANCH  16  17
ATOM     17  C   UNL     1      -2.785   0.071   0.000  1.00  0.00     0.000 C 
BRANCH  17  18
ATOM     18  C   UNL     1      -4.042   0.891   0.000  1.00  0.00     0.000 C 
BRANCH  18  19
ATOM     19  C   UNL     1      -5.379   0.212   0.000  1.00  0.00     0.005 C 
BRANCH  19  20
ATOM     20  C   UNL     1      -6.636   1.032   0.000  1.00  0.00     0.035 C 
BRANCH  20  21
ATOM     21  C   UNL     1      -7.974   0.354   0.000  1.00  0.00    -0.044 A 
ATOM     22  C   UNL     1      -8.055  -1.144   0.000  1.00  0.00     0.008 A 
ATOM     23  C   UNL     1      -9.230   1.173   0.000  1.00  0.00     0.054 A 
ATOM     24  C   UNL     1      -9.393  -1.823   0.000  1.00  0.00     0.051 A 
ATOM     25  C   UNL     1     -10.568   0.495   0.000  1.00  0.00     0.166 A 
ATOM     26  C   UNL     1     -10.649  -1.003   0.000  1.00  0.00     0.165 A 
ATOM     27  O   UNL     1     -11.967   1.035   0.000  1.00  0.00    -0.454 OA
ATOM     28  O   UNL     1     -12.099  -1.388   0.000  1.00  0.00    -0.454 OA
ATOM     29  C   UNL     1     -12.914  -0.129   0.000  1.00  0.00     0.468 C 
ENDBRANCH  20  21
ENDBRANCH  19  20
ENDBRANCH  18  19
ENDBRANCH  17  18
ENDBRANCH  16  17
ENDBRANCH  15  16
ENDBRANCH  14  15
ENDBRANCH  13  14
ENDBRANCH  12  13
ENDBRANCH   1  12
TORSDOF 18
