REMARK SMILES CC(=O)CCC=C(C)CCC=C(CCC=C(C)C)C(=O)O
REMARK SMILES IDX 10 1 9 2 7 3 8 4 6 5 5 6 4 7 2 8 1 9 3 10 11 11 12 12 13 13
REMARK SMILES IDX 14 14 15 15 16 16 17 17 18 18 19 19 20 20 21 21
REMARK H PARENT 21 22
ROOT
ATOM      1  C   UNL     1      -0.544  -0.956   0.000  1.00  0.00     0.032 C 
ENDROOT
BRANCH   1   2
ATOM      2  C   UNL     1      -2.008  -0.627   0.000  1.00  0.00     0.034 C 
BRANCH   2   3
ATOM      3  C   UNL     1      -3.024  -1.730   0.000  1.00  0.00    -0.077 C 
ATOM      4  C   UNL     1      -2.577  -3.162   0.000  1.00  0.00     0.039 C 
BRANCH   3   5
ATOM      5  C   UNL     1      -4.488  -1.401   0.000  1.00  0.00    -0.028 C 
BRANCH   5   6
ATOM      6  C   UNL     1      -4.935   0.031   0.000  1.00  0.00     0.035 C 
BRANCH   6   7
ATOM      7  C   UNL     1      -6.398   0.359   0.000  1.00  0.00     0.079 C 
BRANCH   7   8
ATOM      8  C   UNL     1      -6.845   1.791   0.000  1.00  0.00     0.130 C 
ATOM      9  C   UNL     1      -8.309   2.120   0.000  1.00  0.00     0.087 C 
ATOM     10  O   UNL     1      -5.829   2.894   0.000  1.00  0.00    -0.300 OA
ENDBRANCH   7   8
ENDBRANCH   6   7
ENDBRANCH   5   6
ENDBRANCH   3   5
ENDBRANCH   2   3
ENDBRANCH   1   2
BRANCH   1  11
ATOM     11  C   UNL     1       0.472   0.147   0.000  1.00  0.00    -0.016 C 
BRANCH  11  12
ATOM     12  C   UNL     1       1.936  -0.181   0.000  1.00  0.00     0.033 C 
BRANCH  12  13
ATOM     13  C   UNL     1       2.952   0.922   0.000  1.00  0.00     0.047 C 
BRANCH  13  14
ATOM     14  C   UNL     1       4.416   0.593   0.000  1.00  0.00     0.032 C 
BRANCH  14  15
ATOM     15  C   UNL     1       5.432   1.696   0.000  1.00  0.00    -0.028 C 
BRANCH  15  16
ATOM     16  C   UNL     1       6.896   1.367   0.000  1.00  0.00    -0.080 C 
ATOM     17  C   UNL     1       7.912   2.470   0.000  1.00  0.00     0.039 C 
ATOM     18  C   UNL     1       7.343  -0.064   0.000  1.00  0.00     0.039 C 
ENDBRANCH  15  16
ENDBRANCH  14  15
ENDBRANCH  13  14
ENDBRANCH  12  13
BRANCH  12  19
ATOM     19  C   UNL     1       2.383  -1.613   0.000  1.00  0.00     0.331 C 
ATOM     20  O   UNL     1       1.367  -2.716   0.000  1.00  0.00    -0.247 OA
BRANCH  19  21
ATOM     21  O   UNL     1       3.846  -1.942   0.000  1.00  0.00    -0.478 OA
ATOM     22  H   UNL     1       0.000   0.000   0.000  1.00  0.00     0.297 HD
ENDBRANCH  19  21
ENDBRANCH  12  19
ENDBRANCH  11  12
ENDBRANCH   1  11
TORSDOF 14
