REMARK SMILES COc1ccc(-c2coc3cc(O)c(OC)cc3c2=O)cc1
REMARK SMILES IDX 7 1 8 2 9 3 10 4 11 5 12 6 14 7 17 8 18 9 19 10 20 11 6 12
REMARK SMILES IDX 3 13 4 14 22 15 5 16 21 17 2 18 1 19 15 20 16 21 13 22
REMARK H PARENT 13 23
ROOT
ATOM      1  C   UNL     1      -0.729  -0.811   0.000  1.00  0.00     0.065 A 
ATOM      2  C   UNL     1      -0.265  -2.237   0.000  1.00  0.00     0.208 A 
ATOM      3  O   UNL     1       1.202  -2.548   0.000  1.00  0.00    -0.463 OA
ATOM      4  C   UNL     1       2.205  -1.433   0.000  1.00  0.00     0.141 A 
ATOM      5  C   UNL     1       3.673  -1.744   0.000  1.00  0.00     0.098 A 
ATOM      6  C   UNL     1       4.676  -0.629   0.000  1.00  0.00     0.161 A 
ATOM      7  C   UNL     1       4.211   0.798   0.000  1.00  0.00     0.161 A 
ATOM      8  C   UNL     1       2.744   1.109   0.000  1.00  0.00     0.066 A 
ATOM      9  C   UNL     1       1.741  -0.007   0.000  1.00  0.00     0.069 A 
ATOM     10  C   UNL     1       0.274   0.304   0.000  1.00  0.00     0.200 A 
ATOM     11  O   UNL     1      -0.191   1.730   0.000  1.00  0.00    -0.288 OA
ENDROOT
BRANCH   1  12
ATOM     12  C   UNL     1      -2.197  -0.500   0.000  1.00  0.00    -0.011 A 
ATOM     13  C   UNL     1      -5.132   0.122   0.000  1.00  0.00     0.118 A 
ATOM     14  C   UNL     1      -4.129   1.237   0.000  1.00  0.00     0.047 A 
ATOM     15  C   UNL     1      -4.667  -1.305   0.000  1.00  0.00     0.047 A 
ATOM     16  C   UNL     1      -2.661   0.926   0.000  1.00  0.00     0.013 A 
ATOM     17  C   UNL     1      -3.200  -1.616   0.000  1.00  0.00     0.013 A 
BRANCH  13  18
ATOM     18  O   UNL     1      -6.599   0.433   0.000  1.00  0.00    -0.497 OA
ATOM     19  C   UNL     1      -7.064   1.859   0.000  1.00  0.00     0.278 C 
ENDBRANCH  13  18
ENDBRANCH   1  12
BRANCH   7  20
ATOM     20  O   UNL     1       5.214   1.913   0.000  1.00  0.00    -0.493 OA
ATOM     21  C   UNL     1       4.750   3.339   0.000  1.00  0.00     0.278 C 
ENDBRANCH   7  20
BRANCH   6  22
ATOM     22  O   UNL     1       6.143  -0.940   0.000  1.00  0.00    -0.504 OA
ATOM     23  H   UNL     1       0.000   0.000   0.000  1.00  0.00     0.293 HD
ENDBRANCH   6  22
TORSDOF 4
