REMARK SMILES CC1(C)Oc2c3c(cc4oc(=O)ccc24)O[C@]2(C)CC[C@H]1C3C2
REMARK SMILES IDX 1 1 2 2 3 3 4 4 5 5 6 6 7 7 8 8 9 9 15 10 14 11 13 12 11 13
REMARK SMILES IDX 12 14 10 15 16 16 17 17 18 18 19 19 20 20 21 21 22 22 23 23
REMARK H PARENT
ROOT
ATOM      1  C   UNL     1      -2.544  -2.885   0.000  1.00  0.00     0.056 C 
ATOM      2  C   UNL     1      -1.242  -2.140   0.000  1.00  0.00     0.107 C 
ATOM      3  C   UNL     1      -0.734  -3.551   0.000  1.00  0.00     0.056 C 
ATOM      4  O   UNL     1       0.235  -1.884   0.000  1.00  0.00    -0.486 OA
ATOM      5  C   UNL     1       0.753  -0.476   0.000  1.00  0.00     0.138 A 
ATOM      6  C   UNL     1      -0.207   0.676   0.000  1.00  0.00     0.041 A 
ATOM      7  C   UNL     1       0.310   2.084   0.000  1.00  0.00     0.131 A 
ATOM      8  C   UNL     1       1.788   2.340   0.000  1.00  0.00     0.094 A 
ATOM      9  C   UNL     1       2.749   1.188   0.000  1.00  0.00     0.145 A 
ATOM     10  C   UNL     1       2.231  -0.220   0.000  1.00  0.00     0.060 A 
ATOM     11  C   UNL     1       3.192  -1.372   0.000  1.00  0.00     0.023 A 
ATOM     12  C   UNL     1       4.670  -1.117   0.000  1.00  0.00     0.095 A 
ATOM     13  C   UNL     1       5.187   0.291   0.000  1.00  0.00     0.336 A 
ATOM     14  O   UNL     1       6.665   0.547   0.000  1.00  0.00    -0.246 OA
ATOM     15  O   UNL     1       4.227   1.443   0.000  1.00  0.00    -0.422 OA
ATOM     16  O   UNL     1      -2.972   2.277   0.000  1.00  0.00    -0.487 OA
ATOM     17  C   UNL     1      -4.124   1.317   0.000  1.00  0.00     0.107 C 
ATOM     18  C   UNL     1      -5.085   2.469   0.000  1.00  0.00     0.056 C 
ATOM     19  C   UNL     1      -4.641  -0.091   0.000  1.00  0.00     0.049 C 
ATOM     20  C   UNL     1      -3.681  -1.243   0.000  1.00  0.00     0.012 C 
ATOM     21  C   UNL     1      -2.203  -0.988   0.000  1.00  0.00     0.041 C 
ATOM     22  C   UNL     1      -1.685   0.420   0.000  1.00  0.00     0.038 C 
ATOM     23  C   UNL     1      -2.888   0.915   0.000  1.00  0.00     0.057 C 
ENDROOT
TORSDOF 0
