REMARK SMILES CC(=O)OC[C@H]1O[C@@H](OC/C=C(\C)CCC=C(C)CC/C=C(\C)CCC=C(C)C)[C@H](O)[C@@H](O[C@@H]2O[C@@H](C)[C@H](O)[C@@H](OC(C)=O)[C@H]2OC(C)=O)[C@@H]1OC(C)=O
REMARK SMILES IDX 15 1 14 2 12 3 13 4 11 5 10 6 9 7 8 8 6 9 7 10 50 11 32 12
REMARK SMILES IDX 30 13 5 14 4 15 2 16 1 17 3 18 51 19 52 20 53 21 54 22 33 23
REMARK SMILES IDX 34 24 35 25 45 26 36 27 40 28 38 29 37 30 46 31 47 32 48 33
REMARK SMILES IDX 49 34 41 35 42 36 43 37 44 38 39 39 31 41 16 43 17 44 18 45
REMARK SMILES IDX 19 46 20 47 21 48 22 49 23 50 24 51 25 52 26 53 27 54 28 55
REMARK SMILES IDX 29 56
REMARK H PARENT 39 40 31 42
ROOT
ATOM      1  C   UNL     1      -6.591  -3.492   0.000  1.00  0.00     0.032 C 
ENDROOT
BRANCH   1   2
ATOM      2  C   UNL     1      -5.740  -4.728   0.000  1.00  0.00     0.034 C 
BRANCH   2   3
ATOM      3  C   UNL     1      -4.245  -4.609   0.000  1.00  0.00    -0.075 C 
ATOM      4  C   UNL     1      -3.395  -5.845   0.000  1.00  0.00     0.039 C 
BRANCH   3   5
ATOM      5  C   UNL     1      -3.601  -3.255   0.000  1.00  0.00     0.000 C 
BRANCH   5   6
ATOM      6  C   UNL     1      -2.105  -3.136   0.000  1.00  0.00     0.191 C 
BRANCH   6   7
ATOM      7  O   UNL     1      -1.461  -1.781   0.000  1.00  0.00    -0.346 OA
BRANCH   7   8
ATOM      8  C   UNL     1       0.035  -1.662   0.000  1.00  0.00     0.282 C 
ATOM      9  C   UNL     1       2.381  -2.779   0.000  1.00  0.00     0.203 C 
ATOM     10  O   UNL     1       0.885  -2.898   0.000  1.00  0.00    -0.339 OA
ATOM     11  C   UNL     1       3.025  -1.425   0.000  1.00  0.00     0.240 C 
ATOM     12  C   UNL     1       2.175  -0.189   0.000  1.00  0.00     0.199 C 
ATOM     13  C   UNL     1       0.679  -0.308   0.000  1.00  0.00     0.203 C 
BRANCH   9  14
ATOM     14  C   UNL     1       3.231  -4.014   0.000  1.00  0.00     0.269 C 
BRANCH  14  15
ATOM     15  O   UNL     1       2.587  -5.369   0.000  1.00  0.00    -0.463 OA
BRANCH  15  16
ATOM     16  C   UNL     1       3.437  -6.604   0.000  1.00  0.00     0.302 C 
ATOM     17  C   UNL     1       2.792  -7.959   0.000  1.00  0.00     0.139 C 
ATOM     18  O   UNL     1       4.932  -6.486   0.000  1.00  0.00    -0.253 OA
ENDBRANCH  15  16
ENDBRANCH  14  15
ENDBRANCH   9  14
BRANCH  11  19
ATOM     19  O   UNL     1       4.521  -1.306   0.000  1.00  0.00    -0.457 OA
BRANCH  19  20
ATOM     20  C   UNL     1       5.371  -2.541   0.000  1.00  0.00     0.303 C 
ATOM     21  C   UNL     1       6.866  -2.422   0.000  1.00  0.00     0.139 C 
ATOM     22  O   UNL     1       4.726  -3.896   0.000  1.00  0.00    -0.253 OA
ENDBRANCH  19  20
ENDBRANCH  11  19
BRANCH  12  23
ATOM     23  O   UNL     1       2.819   1.165   0.000  1.00  0.00    -0.339 OA
BRANCH  23  24
ATOM     24  C   UNL     1       4.315   1.284   0.000  1.00  0.00     0.296 C 
ATOM     25  O   UNL     1       5.165   0.049   0.000  1.00  0.00    -0.343 OA
ATOM     26  C   UNL     1       4.959   2.639   0.000  1.00  0.00     0.276 C 
ATOM     27  C   UNL     1       6.660   0.168   0.000  1.00  0.00     0.151 C 
ATOM     28  C   UNL     1       6.455   2.758   0.000  1.00  0.00     0.253 C 
ATOM     29  C   UNL     1       7.305   1.522   0.000  1.00  0.00     0.188 C 
ATOM     30  C   UNL     1       7.511  -1.068   0.000  1.00  0.00     0.042 C 
BRANCH  26  31
ATOM     31  O   UNL     1       4.109   3.874   0.000  1.00  0.00    -0.453 OA
BRANCH  31  32
ATOM     32  C   UNL     1       2.613   3.755   0.000  1.00  0.00     0.303 C 
ATOM     33  C   UNL     1       1.763   4.991   0.000  1.00  0.00     0.139 C 
ATOM     34  O   UNL     1       1.969   2.401   0.000  1.00  0.00    -0.253 OA
ENDBRANCH  31  32
ENDBRANCH  26  31
BRANCH  28  35
ATOM     35  O   UNL     1       7.099   4.112   0.000  1.00  0.00    -0.455 OA
BRANCH  35  36
ATOM     36  C   UNL     1       6.249   5.348   0.000  1.00  0.00     0.303 C 
ATOM     37  C   UNL     1       6.893   6.702   0.000  1.00  0.00     0.139 C 
ATOM     38  O   UNL     1       4.753   5.229   0.000  1.00  0.00    -0.253 OA
ENDBRANCH  35  36
ENDBRANCH  28  35
BRANCH  29  39
ATOM     39  O   UNL     1       8.800   1.641   0.000  1.00  0.00    -0.386 OA
ATOM     40  H   UNL     1       0.000   0.000   0.000  1.00  0.00     0.211 HD
ENDBRANCH  29  39
ENDBRANCH  23  24
ENDBRANCH  12  23
BRANCH  13  41
ATOM     41  O   UNL     1      -0.171   0.927   0.000  1.00  0.00    -0.385 OA
ATOM     42  H   UNL     1       0.000   0.000   0.000  1.00  0.00     0.211 HD
ENDBRANCH  13  41
ENDBRANCH   7   8
ENDBRANCH   6   7
ENDBRANCH   5   6
ENDBRANCH   3   5
ENDBRANCH   2   3
ENDBRANCH   1   2
BRANCH   1  43
ATOM     43  C   UNL     1      -8.086  -3.611   0.000  1.00  0.00    -0.028 C 
BRANCH  43  44
ATOM     44  C   UNL     1      -8.937  -2.376   0.000  1.00  0.00    -0.077 C 
ATOM     45  C   UNL     1     -10.432  -2.495   0.000  1.00  0.00     0.039 C 
BRANCH  44  46
ATOM     46  C   UNL     1      -8.292  -1.021   0.000  1.00  0.00     0.034 C 
BRANCH  46  47
ATOM     47  C   UNL     1      -9.143   0.214   0.000  1.00  0.00     0.032 C 
BRANCH  47  48
ATOM     48  C   UNL     1      -8.498   1.569   0.000  1.00  0.00    -0.028 C 
BRANCH  48  49
ATOM     49  C   UNL     1      -9.349   2.804   0.000  1.00  0.00    -0.077 C 
ATOM     50  C   UNL     1     -10.844   2.685   0.000  1.00  0.00     0.039 C 
BRANCH  49  51
ATOM     51  C   UNL     1      -8.704   4.158   0.000  1.00  0.00     0.034 C 
BRANCH  51  52
ATOM     52  C   UNL     1      -7.209   4.277   0.000  1.00  0.00     0.032 C 
BRANCH  52  53
ATOM     53  C   UNL     1      -6.564   5.632   0.000  1.00  0.00    -0.028 C 
BRANCH  53  54
ATOM     54  C   UNL     1      -5.069   5.751   0.000  1.00  0.00    -0.080 C 
ATOM     55  C   UNL     1      -4.424   7.105   0.000  1.00  0.00     0.039 C 
ATOM     56  C   UNL     1      -4.218   4.515   0.000  1.00  0.00     0.039 C 
ENDBRANCH  53  54
ENDBRANCH  52  53
ENDBRANCH  51  52
ENDBRANCH  49  51
ENDBRANCH  48  49
ENDBRANCH  47  48
ENDBRANCH  46  47
ENDBRANCH  44  46
ENDBRANCH  43  44
ENDBRANCH   1  43
TORSDOF 29
