REMARK SMILES Oc1ccc2c(c1)O[C@@H]1c3ccc(O)c(O)c3CO[C@H]1[C@@H]2O
REMARK SMILES IDX 2 1 3 2 4 3 5 4 6 5 7 6 8 7 9 8 10 9 11 10 12 11 13 12 15 13
REMARK SMILES IDX 17 14 18 15 19 16 20 17 21 18 1 19 22 21 16 23 14 25
REMARK H PARENT 1 20 22 22 16 24 14 26
ROOT
ATOM      1  C   UNL     1      -4.834  -1.354   0.000  1.00  0.00     0.119 A 
ATOM      2  C   UNL     1      -5.209   0.098   0.000  1.00  0.00     0.047 A 
ATOM      3  C   UNL     1      -4.139   1.149   0.000  1.00  0.00     0.014 A 
ATOM      4  C   UNL     1      -2.693   0.748   0.000  1.00  0.00     0.026 A 
ATOM      5  C   UNL     1      -2.318  -0.704   0.000  1.00  0.00     0.129 A 
ATOM      6  C   UNL     1      -3.389  -1.755   0.000  1.00  0.00     0.093 A 
ATOM      7  O   UNL     1      -0.873  -1.106   0.000  1.00  0.00    -0.482 OA
ATOM      8  C   UNL     1       0.197  -0.055   0.000  1.00  0.00     0.236 C 
ATOM      9  C   UNL     1       1.642  -0.456   0.000  1.00  0.00     0.005 A 
ATOM     10  C   UNL     1       2.018  -1.908   0.000  1.00  0.00     0.012 A 
ATOM     11  C   UNL     1       3.463  -2.310   0.000  1.00  0.00     0.050 A 
ATOM     12  C   UNL     1       4.533  -1.259   0.000  1.00  0.00     0.157 A 
ATOM     13  C   UNL     1       4.158   0.194   0.000  1.00  0.00     0.163 A 
ATOM     14  C   UNL     1       2.713   0.595   0.000  1.00  0.00     0.030 A 
ATOM     15  C   UNL     1       2.337   2.047   0.000  1.00  0.00     0.201 C 
ATOM     16  O   UNL     1       0.892   2.449   0.000  1.00  0.00    -0.366 OA
ATOM     17  C   UNL     1      -0.178   1.398   0.000  1.00  0.00     0.197 C 
ATOM     18  C   UNL     1      -1.623   1.799   0.000  1.00  0.00     0.181 C 
ENDROOT
BRANCH   1  19
ATOM     19  O   UNL     1      -5.904  -2.405   0.000  1.00  0.00    -0.508 OA
ATOM     20  H   UNL     1       0.000   0.000   0.000  1.00  0.00     0.293 HD
ENDBRANCH   1  19
BRANCH  18  21
ATOM     21  O   UNL     1      -1.998   3.251   0.000  1.00  0.00    -0.385 OA
ATOM     22  H   UNL     1       0.000   0.000   0.000  1.00  0.00     0.211 HD
ENDBRANCH  18  21
BRANCH  13  23
ATOM     23  O   UNL     1       5.228   1.245   0.000  1.00  0.00    -0.504 OA
ATOM     24  H   UNL     1       0.000   0.000   0.000  1.00  0.00     0.293 HD
ENDBRANCH  13  23
BRANCH  12  25
ATOM     25  O   UNL     1       5.978  -1.660   0.000  1.00  0.00    -0.504 OA
ATOM     26  H   UNL     1       0.000   0.000   0.000  1.00  0.00     0.293 HD
ENDBRANCH  12  25
TORSDOF 4
