REMARK SMILES COc1ccc([C@H]2c3cc(OC)c(OC)cc3C[C@@H](COC(C)=O)[C@@H]2COC(C)=O)cc1OC
REMARK SMILES IDX 7 1 8 2 9 3 10 4 13 5 16 6 17 7 18 8 19 9 25 10 6 11 3 12
REMARK SMILES IDX 4 13 32 14 5 15 31 16 2 17 1 18 33 19 34 20 26 21 27 22
REMARK SMILES IDX 28 23 29 24 30 25 20 26 21 27 22 28 23 29 24 30 11 31 12 32
REMARK SMILES IDX 14 33 15 34
REMARK H PARENT
ROOT
ATOM      1  C   UNL     1       0.096  -0.066   0.000  1.00  0.00     0.057 C 
ATOM      2  C   UNL     1       0.694   1.310   0.000  1.00  0.00    -0.033 A 
ATOM      3  C   UNL     1       2.184   1.480   0.000  1.00  0.00     0.055 A 
ATOM      4  C   UNL     1       2.782   2.856   0.000  1.00  0.00     0.161 A 
ATOM      5  C   UNL     1       1.889   4.061   0.000  1.00  0.00     0.161 A 
ATOM      6  C   UNL     1       0.399   3.891   0.000  1.00  0.00     0.054 A 
ATOM      7  C   UNL     1      -0.199   2.515   0.000  1.00  0.00    -0.040 A 
ATOM      8  C   UNL     1      -1.689   2.345   0.000  1.00  0.00     0.043 C 
ATOM      9  C   UNL     1      -2.287   0.969   0.000  1.00  0.00     0.039 C 
ATOM     10  C   UNL     1      -1.394  -0.236   0.000  1.00  0.00     0.046 C 
ENDROOT
BRANCH   1  11
ATOM     11  C   UNL     1       0.989  -1.271   0.000  1.00  0.00    -0.036 A 
ATOM     12  C   UNL     1       2.774  -3.682   0.000  1.00  0.00     0.160 A 
ATOM     13  C   UNL     1       1.284  -3.853   0.000  1.00  0.00     0.051 A 
ATOM     14  C   UNL     1       3.372  -2.307   0.000  1.00  0.00     0.161 A 
ATOM     15  C   UNL     1       0.391  -2.647   0.000  1.00  0.00     0.008 A 
ATOM     16  C   UNL     1       2.479  -1.101   0.000  1.00  0.00     0.054 A 
BRANCH  12  17
ATOM     17  O   UNL     1       3.667  -4.888   0.000  1.00  0.00    -0.493 OA
ATOM     18  C   UNL     1       3.069  -6.264   0.000  1.00  0.00     0.278 C 
ENDBRANCH  12  17
BRANCH  14  19
ATOM     19  O   UNL     1       4.862  -2.136   0.000  1.00  0.00    -0.493 OA
ATOM     20  C   UNL     1       5.460  -0.761   0.000  1.00  0.00     0.278 C 
ENDBRANCH  14  19
ENDBRANCH   1  11
BRANCH  10  21
ATOM     21  C   UNL     1      -1.992  -1.612   0.000  1.00  0.00     0.237 C 
BRANCH  21  22
ATOM     22  O   UNL     1      -3.482  -1.782   0.000  1.00  0.00    -0.466 OA
BRANCH  22  23
ATOM     23  C   UNL     1      -4.080  -3.158   0.000  1.00  0.00     0.302 C 
ATOM     24  C   UNL     1      -5.570  -3.328   0.000  1.00  0.00     0.139 C 
ATOM     25  O   UNL     1      -3.187  -4.364   0.000  1.00  0.00    -0.253 OA
ENDBRANCH  22  23
ENDBRANCH  21  22
ENDBRANCH  10  21
BRANCH   9  26
ATOM     26  C   UNL     1      -3.777   0.799   0.000  1.00  0.00     0.237 C 
BRANCH  26  27
ATOM     27  O   UNL     1      -4.670   2.005   0.000  1.00  0.00    -0.466 OA
BRANCH  27  28
ATOM     28  C   UNL     1      -6.160   1.834   0.000  1.00  0.00     0.302 C 
ATOM     29  C   UNL     1      -7.052   3.040   0.000  1.00  0.00     0.139 C 
ATOM     30  O   UNL     1      -6.758   0.459   0.000  1.00  0.00    -0.253 OA
ENDBRANCH  27  28
ENDBRANCH  26  27
ENDBRANCH   9  26
BRANCH   4  31
ATOM     31  O   UNL     1       4.272   3.026   0.000  1.00  0.00    -0.493 OA
ATOM     32  C   UNL     1       5.165   1.821   0.000  1.00  0.00     0.278 C 
ENDBRANCH   4  31
BRANCH   5  33
ATOM     33  O   UNL     1       2.487   5.437   0.000  1.00  0.00    -0.493 OA
ATOM     34  C   UNL     1       3.977   5.607   0.000  1.00  0.00     0.278 C 
ENDBRANCH   5  33
TORSDOF 11
