REMARK SMILES CC(C)=CCCC(=CCCC(C)=CCCC(C)=CCC1=CC(=O)C(C)=C(C)C1=O)C(=O)O
REMARK SMILES IDX 10 1 9 2 8 3 7 4 6 5 5 6 4 7 2 8 1 9 3 10 30 11 31 12 32 13
REMARK SMILES IDX 11 15 12 16 13 17 14 18 15 19 16 20 17 21 18 22 19 23 20 24
REMARK SMILES IDX 21 25 28 26 22 27 26 28 24 29 29 30 23 31 27 32 25 33
REMARK H PARENT 32 14
ROOT
ATOM      1  C   UNL     1      -2.358  -0.930   0.000  1.00  0.00     0.034 C 
ENDROOT
BRANCH   1   2
ATOM      2  C   UNL     1      -3.845  -1.129   0.000  1.00  0.00     0.032 C 
BRANCH   2   3
ATOM      3  C   UNL     1      -4.761   0.059   0.000  1.00  0.00    -0.016 C 
BRANCH   3   4
ATOM      4  C   UNL     1      -6.248  -0.141   0.000  1.00  0.00     0.033 C 
BRANCH   4   5
ATOM      5  C   UNL     1      -7.163   1.047   0.000  1.00  0.00     0.047 C 
BRANCH   5   6
ATOM      6  C   UNL     1      -8.650   0.848   0.000  1.00  0.00     0.032 C 
BRANCH   6   7
ATOM      7  C   UNL     1      -9.566   2.036   0.000  1.00  0.00    -0.028 C 
BRANCH   7   8
ATOM      8  C   UNL     1     -11.053   1.837   0.000  1.00  0.00    -0.080 C 
ATOM      9  C   UNL     1     -11.969   3.025   0.000  1.00  0.00     0.039 C 
ATOM     10  C   UNL     1     -11.624   0.450   0.000  1.00  0.00     0.039 C 
ENDBRANCH   7   8
ENDBRANCH   6   7
ENDBRANCH   5   6
ENDBRANCH   4   5
BRANCH   4  11
ATOM     11  C   UNL     1      -6.819  -1.528   0.000  1.00  0.00     0.331 C 
ATOM     12  O   UNL     1      -5.903  -2.716   0.000  1.00  0.00    -0.247 OA
BRANCH  11  13
ATOM     13  O   UNL     1      -8.305  -1.727   0.000  1.00  0.00    -0.478 OA
ATOM     14  H   UNL     1       0.000   0.000   0.000  1.00  0.00     0.297 HD
ENDBRANCH  11  13
ENDBRANCH   4  11
ENDBRANCH   3   4
ENDBRANCH   2   3
ENDBRANCH   1   2
BRANCH   1  15
ATOM     15  C   UNL     1      -1.442  -2.118   0.000  1.00  0.00    -0.077 C 
ATOM     16  C   UNL     1      -2.013  -3.505   0.000  1.00  0.00     0.039 C 
BRANCH  15  17
ATOM     17  C   UNL     1       0.044  -1.919   0.000  1.00  0.00    -0.028 C 
BRANCH  17  18
ATOM     18  C   UNL     1       0.615  -0.532   0.000  1.00  0.00     0.032 C 
BRANCH  18  19
ATOM     19  C   UNL     1       2.102  -0.333   0.000  1.00  0.00     0.034 C 
BRANCH  19  20
ATOM     20  C   UNL     1       2.673   1.054   0.000  1.00  0.00    -0.077 C 
ATOM     21  C   UNL     1       1.757   2.242   0.000  1.00  0.00     0.039 C 
BRANCH  20  22
ATOM     22  C   UNL     1       4.160   1.254   0.000  1.00  0.00    -0.023 C 
BRANCH  22  23
ATOM     23  C   UNL     1       5.075   0.066   0.000  1.00  0.00     0.067 C 
BRANCH  23  24
ATOM     24  C   UNL     1       6.562   0.265   0.000  1.00  0.00     0.007 C 
ATOM     25  C   UNL     1       7.133   1.652   0.000  1.00  0.00     0.060 C 
ATOM     26  C   UNL     1       7.478  -0.923   0.000  1.00  0.00     0.185 C 
ATOM     27  C   UNL     1       8.620   1.851   0.000  1.00  0.00     0.182 C 
ATOM     28  C   UNL     1       8.965  -0.724   0.000  1.00  0.00     0.003 C 
ATOM     29  C   UNL     1       9.536   0.663   0.000  1.00  0.00     0.003 C 
ATOM     30  O   UNL     1       6.907  -2.310   0.000  1.00  0.00    -0.289 OA
ATOM     31  O   UNL     1       9.191   3.238   0.000  1.00  0.00    -0.290 OA
ATOM     32  C   UNL     1       9.880  -1.912   0.000  1.00  0.00     0.049 C 
ATOM     33  C   UNL     1      11.022   0.862   0.000  1.00  0.00     0.049 C 
ENDBRANCH  23  24
ENDBRANCH  22  23
ENDBRANCH  20  22
ENDBRANCH  19  20
ENDBRANCH  18  19
ENDBRANCH  17  18
ENDBRANCH  15  17
ENDBRANCH   1  15
TORSDOF 17
