REMARK SMILES COc1ccc(CCC(=O)c2c(O)cc(O)cc2OC)cc1
REMARK SMILES IDX 8 1 7 2 6 3 3 4 4 5 22 6 5 7 21 8 2 9 1 10 9 11 10 12 11 13
REMARK SMILES IDX 12 14 18 15 14 16 17 17 15 18 13 19 19 21 20 22 16 23
REMARK H PARENT 13 20 16 24
ROOT
ATOM      1  C   UNL     1      -0.135   0.392   0.000  1.00  0.00     0.086 C 
ENDROOT
BRANCH   1   2
ATOM      2  C   UNL     1      -1.343   1.281   0.000  1.00  0.00     0.044 C 
BRANCH   2   3
ATOM      3  C   UNL     1      -2.717   0.678   0.000  1.00  0.00    -0.047 A 
ATOM      4  C   UNL     1      -5.465  -0.526   0.000  1.00  0.00     0.118 A 
ATOM      5  C   UNL     1      -5.299   0.965   0.000  1.00  0.00     0.046 A 
ATOM      6  C   UNL     1      -4.256  -1.415   0.000  1.00  0.00     0.046 A 
ATOM      7  C   UNL     1      -3.925   1.567   0.000  1.00  0.00     0.007 A 
ATOM      8  C   UNL     1      -2.882  -0.812   0.000  1.00  0.00     0.007 A 
BRANCH   4   9
ATOM      9  O   UNL     1      -6.838  -1.129   0.000  1.00  0.00    -0.497 OA
ATOM     10  C   UNL     1      -8.047  -0.240   0.000  1.00  0.00     0.278 C 
ENDBRANCH   4   9
ENDBRANCH   2   3
ENDBRANCH   1   2
BRANCH   1  11
ATOM     11  C   UNL     1       1.239   0.995   0.000  1.00  0.00     0.170 C 
ATOM     12  O   UNL     1       1.404   2.485   0.000  1.00  0.00    -0.294 OA
BRANCH  11  13
ATOM     13  C   UNL     1       2.447   0.106   0.000  1.00  0.00     0.102 A 
ATOM     14  C   UNL     1       2.282  -1.385   0.000  1.00  0.00     0.133 A 
ATOM     15  C   UNL     1       3.821   0.708   0.000  1.00  0.00     0.137 A 
ATOM     16  C   UNL     1       3.491  -2.273   0.000  1.00  0.00     0.093 A 
ATOM     17  C   UNL     1       5.030  -0.180   0.000  1.00  0.00     0.093 A 
ATOM     18  C   UNL     1       4.864  -1.671   0.000  1.00  0.00     0.123 A 
BRANCH  14  19
ATOM     19  O   UNL     1       0.908  -1.987   0.000  1.00  0.00    -0.507 OA
ATOM     20  H   UNL     1       0.000   0.000   0.000  1.00  0.00     0.293 HD
ENDBRANCH  14  19
BRANCH  15  21
ATOM     21  O   UNL     1       3.986   2.199   0.000  1.00  0.00    -0.496 OA
ATOM     22  C   UNL     1       5.360   2.802   0.000  1.00  0.00     0.278 C 
ENDBRANCH  15  21
BRANCH  18  23
ATOM     23  O   UNL     1       6.073  -2.560   0.000  1.00  0.00    -0.508 OA
ATOM     24  H   UNL     1       0.000   0.000   0.000  1.00  0.00     0.293 HD
ENDBRANCH  18  23
ENDBRANCH  11  13
ENDBRANCH   1  11
TORSDOF 8
