REMARK SMILES CC(=O)O[C@@H]1CC2C(C)(C)C(=O)C=C[C@]2(C)C2CC[C@]3(C)C(=CC(=O)[C@@]3(O)c3ccoc3)[C@@]21C
REMARK SMILES IDX 5 1 6 2 7 3 8 4 9 5 10 6 11 7 12 8 13 9 14 10 15 11 16 12
REMARK SMILES IDX 17 13 18 14 19 15 20 16 21 17 22 18 23 19 24 20 25 21 26 22
REMARK SMILES IDX 33 23 34 24 4 25 2 26 1 27 3 28 27 29 28 31 32 32 29 33
REMARK SMILES IDX 31 34 30 35
REMARK H PARENT 27 30
ROOT
ATOM      1  C   UNL     1       1.242  -1.391   0.000  1.00  0.00     0.187 C 
ATOM      2  C   UNL     1       2.738  -1.280   0.000  1.00  0.00     0.051 C 
ATOM      3  C   UNL     1       3.390   0.070   0.000  1.00  0.00     0.016 C 
ATOM      4  C   UNL     1       4.886   0.181   0.000  1.00  0.00     0.031 C 
ATOM      5  C   UNL     1       6.329  -0.227   0.000  1.00  0.00     0.020 C 
ATOM      6  C   UNL     1       4.735  -1.312   0.000  1.00  0.00     0.020 C 
ATOM      7  C   UNL     1       5.538   1.532   0.000  1.00  0.00     0.161 C 
ATOM      8  O   UNL     1       7.034   1.642   0.000  1.00  0.00    -0.294 OA
ATOM      9  C   UNL     1       4.694   2.772   0.000  1.00  0.00     0.044 C 
ATOM     10  C   UNL     1       3.198   2.661   0.000  1.00  0.00    -0.016 C 
ATOM     11  C   UNL     1       2.546   1.310   0.000  1.00  0.00    -0.007 C 
ATOM     12  C   UNL     1       1.702   2.551   0.000  1.00  0.00     0.016 C 
ATOM     13  C   UNL     1       1.050   1.200   0.000  1.00  0.00     0.013 C 
ATOM     14  C   UNL     1       0.206   2.440   0.000  1.00  0.00     0.006 C 
ATOM     15  C   UNL     1      -1.290   2.329   0.000  1.00  0.00     0.015 C 
ATOM     16  C   UNL     1      -1.942   0.979   0.000  1.00  0.00     0.030 C 
ATOM     17  C   UNL     1      -2.764   2.233   0.000  1.00  0.00     0.020 C 
ATOM     18  C   UNL     1      -1.098  -0.262   0.000  1.00  0.00    -0.047 C 
ATOM     19  C   UNL     1      -2.017  -1.447   0.000  1.00  0.00     0.051 C 
ATOM     20  C   UNL     1      -3.428  -0.940   0.000  1.00  0.00     0.192 C 
ATOM     21  O   UNL     1      -4.668  -1.784   0.000  1.00  0.00    -0.291 OA
ATOM     22  C   UNL     1      -3.382   0.559   0.000  1.00  0.00     0.164 C 
ATOM     23  C   UNL     1       0.398  -0.151   0.000  1.00  0.00     0.030 C 
ATOM     24  C   UNL     1      -0.254  -1.502   0.000  1.00  0.00     0.020 C 
ENDROOT
BRANCH   1  25
ATOM     25  O   UNL     1       0.590  -2.742   0.000  1.00  0.00    -0.462 OA
BRANCH  25  26
ATOM     26  C   UNL     1       1.433  -3.982   0.000  1.00  0.00     0.302 C 
ATOM     27  C   UNL     1       0.781  -5.333   0.000  1.00  0.00     0.139 C 
ATOM     28  O   UNL     1       2.929  -3.872   0.000  1.00  0.00    -0.253 OA
ENDBRANCH  25  26
ENDBRANCH   1  25
BRANCH  22  29
ATOM     29  O   UNL     1      -3.826   1.992   0.000  1.00  0.00    -0.376 OA
ATOM     30  H   UNL     1       0.000   0.000   0.000  1.00  0.00     0.212 HD
ENDBRANCH  22  29
BRANCH  22  31
ATOM     31  C   UNL     1      -4.878   0.449   0.000  1.00  0.00     0.030 A 
ATOM     32  C   UNL     1      -5.668  -0.827   0.000  1.00  0.00     0.202 A 
ATOM     33  C   UNL     1      -5.847   1.594   0.000  1.00  0.00     0.049 A 
ATOM     34  O   UNL     1      -7.125  -0.470   0.000  1.00  0.00    -0.472 OA
ATOM     35  C   UNL     1      -7.235   1.026   0.000  1.00  0.00     0.195 A 
ENDBRANCH  22  31
TORSDOF 4
