REMARK SMILES COc1cc(-c2oc3cc(OC)c(OC(C)=O)c(OC(C)=O)c3c(=O)c2OC)cc(OC(C)=O)c1OC
REMARK SMILES IDX 6 1 26 2 24 3 25 4 23 5 18 6 13 7 10 8 9 9 8 10 7 11 5 12
REMARK SMILES IDX 3 13 4 14 35 15 30 16 29 17 2 18 1 19 36 20 37 21 31 22
REMARK SMILES IDX 32 23 33 24 34 25 27 26 28 27 19 28 20 29 21 30 22 31 11 32
REMARK SMILES IDX 12 33 14 34 15 35 16 36 17 37
REMARK H PARENT
ROOT
ATOM      1  C   UNL     1      -0.888  -0.125   0.000  1.00  0.00     0.180 A 
ATOM      2  C   UNL     1      -0.380  -1.537   0.000  1.00  0.00     0.210 A 
ATOM      3  C   UNL     1       1.096  -1.803   0.000  1.00  0.00     0.239 A 
ATOM      4  O   UNL     1       1.604  -3.214   0.000  1.00  0.00    -0.285 OA
ATOM      5  C   UNL     1       2.065  -0.657   0.000  1.00  0.00     0.116 A 
ATOM      6  C   UNL     1       3.541  -0.923   0.000  1.00  0.00     0.192 A 
ATOM      7  C   UNL     1       4.510   0.222   0.000  1.00  0.00     0.216 A 
ATOM      8  C   UNL     1       4.002   1.633   0.000  1.00  0.00     0.169 A 
ATOM      9  C   UNL     1       2.526   1.899   0.000  1.00  0.00     0.098 A 
ATOM     10  C   UNL     1       1.557   0.754   0.000  1.00  0.00     0.146 A 
ATOM     11  O   UNL     1       0.081   1.020   0.000  1.00  0.00    -0.452 OA
ENDROOT
BRANCH   1  12
ATOM     12  C   UNL     1      -2.364   0.141   0.000  1.00  0.00     0.029 A 
ATOM     13  C   UNL     1      -4.348   1.818   0.000  1.00  0.00     0.165 A 
ATOM     14  C   UNL     1      -2.872   1.552   0.000  1.00  0.00     0.062 A 
ATOM     15  C   UNL     1      -5.316   0.673   0.000  1.00  0.00     0.204 A 
ATOM     16  C   UNL     1      -4.809  -0.739   0.000  1.00  0.00     0.177 A 
ATOM     17  C   UNL     1      -3.332  -1.005   0.000  1.00  0.00     0.063 A 
BRANCH  13  18
ATOM     18  O   UNL     1      -4.856   3.229   0.000  1.00  0.00    -0.493 OA
ATOM     19  C   UNL     1      -3.887   4.375   0.000  1.00  0.00     0.278 C 
ENDBRANCH  13  18
BRANCH  15  20
ATOM     20  O   UNL     1      -6.793   0.939   0.000  1.00  0.00    -0.490 OA
ATOM     21  C   UNL     1      -7.300   2.350   0.000  1.00  0.00     0.278 C 
ENDBRANCH  15  20
BRANCH  16  22
ATOM     22  O   UNL     1      -5.777  -1.884   0.000  1.00  0.00    -0.423 OA
BRANCH  22  23
ATOM     23  C   UNL     1      -7.253  -1.618   0.000  1.00  0.00     0.308 C 
ATOM     24  C   UNL     1      -8.222  -2.764   0.000  1.00  0.00     0.139 C 
ATOM     25  O   UNL     1      -7.761  -0.207   0.000  1.00  0.00    -0.252 OA
ENDBRANCH  22  23
ENDBRANCH  16  22
ENDBRANCH   1  12
BRANCH   2  26
ATOM     26  O   UNL     1      -1.348  -2.682   0.000  1.00  0.00    -0.490 OA
ATOM     27  C   UNL     1      -2.825  -2.416   0.000  1.00  0.00     0.278 C 
ENDBRANCH   2  26
BRANCH   6  28
ATOM     28  O   UNL     1       4.049  -2.335   0.000  1.00  0.00    -0.422 OA
BRANCH  28  29
ATOM     29  C   UNL     1       5.525  -2.601   0.000  1.00  0.00     0.308 C 
ATOM     30  C   UNL     1       6.033  -4.012   0.000  1.00  0.00     0.139 C 
ATOM     31  O   UNL     1       6.494  -1.456   0.000  1.00  0.00    -0.252 OA
ENDBRANCH  28  29
ENDBRANCH   6  28
BRANCH   8  32
ATOM     32  O   UNL     1       4.970   2.779   0.000  1.00  0.00    -0.493 OA
ATOM     33  C   UNL     1       4.463   4.190   0.000  1.00  0.00     0.278 C 
ENDBRANCH   8  32
BRANCH   7  34
ATOM     34  O   UNL     1       5.986  -0.044   0.000  1.00  0.00    -0.419 OA
BRANCH  34  35
ATOM     35  C   UNL     1       6.954   1.101   0.000  1.00  0.00     0.308 C 
ATOM     36  C   UNL     1       8.430   0.835   0.000  1.00  0.00     0.139 C 
ATOM     37  O   UNL     1       6.447   2.513   0.000  1.00  0.00    -0.252 OA
ENDBRANCH  34  35
ENDBRANCH   7  34
TORSDOF 11
