REMARK SMILES C[C@H]1OC(=O)c2c(O)cccc2[C@H]1O
REMARK SMILES IDX 1 1 2 2 3 3 4 4 5 5 6 6 7 7 9 8 10 9 11 10 12 11 13 12 14 13
REMARK SMILES IDX 8 15
REMARK H PARENT 14 14 8 16
ROOT
ATOM      1  C   UNL     1      -3.847  -0.464   0.000  1.00  0.00     0.056 C 
ATOM      2  C   UNL     1      -2.348  -0.428   0.000  1.00  0.00     0.207 C 
ATOM      3  O   UNL     1      -1.567  -1.708   0.000  1.00  0.00    -0.456 OA
ATOM      4  C   UNL     1      -0.067  -1.672   0.000  1.00  0.00     0.342 C 
ATOM      5  O   UNL     1       0.714  -2.953   0.000  1.00  0.00    -0.246 OA
ATOM      6  C   UNL     1       0.652  -0.356   0.000  1.00  0.00     0.107 A 
ATOM      7  C   UNL     1       2.151  -0.320   0.000  1.00  0.00     0.130 A 
ATOM      8  C   UNL     1       2.870   0.997   0.000  1.00  0.00     0.047 A 
ATOM      9  C   UNL     1       2.089   2.278   0.000  1.00  0.00     0.004 A 
ATOM     10  C   UNL     1       0.589   2.242   0.000  1.00  0.00     0.008 A 
ATOM     11  C   UNL     1      -0.129   0.925   0.000  1.00  0.00     0.002 A 
ATOM     12  C   UNL     1      -1.629   0.889   0.000  1.00  0.00     0.186 C 
ENDROOT
BRANCH  12  13
ATOM     13  O   UNL     1      -2.410   2.170   0.000  1.00  0.00    -0.385 OA
ATOM     14  H   UNL     1       0.000   0.000   0.000  1.00  0.00     0.211 HD
ENDBRANCH  12  13
BRANCH   7  15
ATOM     15  O   UNL     1       2.932  -1.600   0.000  1.00  0.00    -0.507 OA
ATOM     16  H   UNL     1       0.000   0.000   0.000  1.00  0.00     0.293 HD
ENDBRANCH   7  15
TORSDOF 2
