REMARK SMILES CC(C)(O)[C@@H]1CC[C@@]2(C)CCC[C@@](C)(O)C2C1
REMARK SMILES IDX 5 1 6 2 7 3 8 4 9 5 10 6 11 7 12 8 13 9 14 10 16 11 17 12
REMARK SMILES IDX 2 13 1 14 3 15 4 16 15 18
REMARK H PARENT 4 17 15 19
ROOT
ATOM      1  C   UNL     1      -1.758   0.168   0.000  1.00  0.00     0.021 C 
ATOM      2  C   UNL     1      -1.470   1.640   0.000  1.00  0.00     0.007 C 
ATOM      3  C   UNL     1      -0.051   2.126   0.000  1.00  0.00     0.007 C 
ATOM      4  C   UNL     1       1.080   1.140   0.000  1.00  0.00    -0.027 C 
ATOM      5  C   UNL     1       1.369   2.612   0.000  1.00  0.00     0.012 C 
ATOM      6  C   UNL     1       2.499   1.626   0.000  1.00  0.00     0.007 C 
ATOM      7  C   UNL     1       3.630   0.640   0.000  1.00  0.00     0.004 C 
ATOM      8  C   UNL     1       3.341  -0.832   0.000  1.00  0.00     0.035 C 
ATOM      9  C   UNL     1       1.922  -1.318   0.000  1.00  0.00     0.065 C 
ATOM     10  C   UNL     1       0.755  -2.260   0.000  1.00  0.00     0.042 C 
ATOM     11  C   UNL     1       0.791  -0.332   0.000  1.00  0.00     0.027 C 
ATOM     12  C   UNL     1      -0.628  -0.818   0.000  1.00  0.00     0.013 C 
ENDROOT
BRANCH   1  13
ATOM     13  C   UNL     1      -3.177  -0.318   0.000  1.00  0.00     0.062 C 
ATOM     14  C   UNL     1      -2.691  -1.737   0.000  1.00  0.00     0.042 C 
ATOM     15  C   UNL     1      -3.663   1.101   0.000  1.00  0.00     0.042 C 
BRANCH  13  16
ATOM     16  O   UNL     1      -4.596  -0.804   0.000  1.00  0.00    -0.390 OA
ATOM     17  H   UNL     1       0.000   0.000   0.000  1.00  0.00     0.211 HD
ENDBRANCH  13  16
ENDBRANCH   1  13
BRANCH   9  18
ATOM     18  O   UNL     1       2.647  -2.631   0.000  1.00  0.00    -0.390 OA
ATOM     19  H   UNL     1       0.000   0.000   0.000  1.00  0.00     0.211 HD
ENDBRANCH   9  18
TORSDOF 3
