REMARK SMILES C=CC[C@@]12C=C(OC(C)=O)C(=O)[C@@](OC)(C1OC(C)=O)[C@@H](c1ccc3c(c1)OCO3)[C@@H]2C
REMARK SMILES IDX 4 1 5 2 6 3 11 4 12 5 13 6 16 7 21 8 31 9 32 10 3 11 2 12
REMARK SMILES IDX 1 13 17 14 18 15 19 16 20 17 7 18 8 19 9 20 10 21 14 22
REMARK SMILES IDX 15 23 22 24 23 25 27 26 24 27 26 28 25 29 28 30 30 31 29 32
REMARK H PARENT
ROOT
ATOM      1  C   UNL     1       1.552   1.622   0.000  1.00  0.00     0.039 C 
ATOM      2  C   UNL     1       3.022   1.324   0.000  1.00  0.00     0.035 C 
ATOM      3  C   UNL     1       3.498  -0.099   0.000  1.00  0.00     0.173 C 
ATOM      4  C   UNL     1       2.505  -1.222   0.000  1.00  0.00     0.234 C 
ATOM      5  O   UNL     1       2.981  -2.645   0.000  1.00  0.00    -0.287 OA
ATOM      6  C   UNL     1       1.035  -0.924   0.000  1.00  0.00     0.178 C 
ATOM      7  C   UNL     1       0.558   0.499   0.000  1.00  0.00     0.228 C 
ATOM      8  C   UNL     1      -0.237  -0.018   0.000  1.00  0.00     0.067 C 
ATOM      9  C   UNL     1       0.062   1.452   0.000  1.00  0.00     0.011 C 
ATOM     10  C   UNL     1      -0.319   2.152   0.000  1.00  0.00     0.009 C 
ENDROOT
BRANCH   1  11
ATOM     11  C   UNL     1       1.075   3.045   0.000  1.00  0.00     0.042 C 
BRANCH  11  12
ATOM     12  C   UNL     1       2.069   4.168   0.000  1.00  0.00    -0.034 C 
ATOM     13  C   UNL     1       1.593   5.591   0.000  1.00  0.00     0.004 C 
ENDBRANCH  11  12
ENDBRANCH   1  11
BRANCH   7  14
ATOM     14  O   UNL     1      -0.912   0.797   0.000  1.00  0.00    -0.458 OA
BRANCH  14  15
ATOM     15  C   UNL     1      -1.388   2.219   0.000  1.00  0.00     0.303 C 
ATOM     16  C   UNL     1      -2.858   2.518   0.000  1.00  0.00     0.139 C 
ATOM     17  O   UNL     1      -0.860   2.817   0.000  1.00  0.00    -0.253 OA
ENDBRANCH  14  15
ENDBRANCH   7  14
BRANCH   3  18
ATOM     18  O   UNL     1       4.968  -0.397   0.000  1.00  0.00    -0.423 OA
BRANCH  18  19
ATOM     19  C   UNL     1       5.445  -1.819   0.000  1.00  0.00     0.308 C 
ATOM     20  C   UNL     1       6.915  -2.118   0.000  1.00  0.00     0.139 C 
ATOM     21  O   UNL     1       4.451  -2.943   0.000  1.00  0.00    -0.252 OA
ENDBRANCH  18  19
ENDBRANCH   3  18
BRANCH   6  22
ATOM     22  O   UNL     1       0.041  -2.047   0.000  1.00  0.00    -0.365 OA
ATOM     23  C   UNL     1       0.518  -3.470   0.000  1.00  0.00     0.196 C 
ENDBRANCH   6  22
BRANCH   8  24
ATOM     24  C   UNL     1      -1.602  -0.640   0.000  1.00  0.00    -0.037 A 
ATOM     25  C   UNL     1      -1.745  -2.134   0.000  1.00  0.00     0.008 A 
ATOM     26  C   UNL     1      -2.823   0.230   0.000  1.00  0.00     0.054 A 
ATOM     27  C   UNL     1      -3.110  -2.756   0.000  1.00  0.00     0.051 A 
ATOM     28  C   UNL     1      -4.188  -0.392   0.000  1.00  0.00     0.166 A 
ATOM     29  C   UNL     1      -4.331  -1.885   0.000  1.00  0.00     0.165 A 
ATOM     30  O   UNL     1      -5.564   0.205   0.000  1.00  0.00    -0.454 OA
ATOM     31  O   UNL     1      -5.795  -2.211   0.000  1.00  0.00    -0.454 OA
ATOM     32  C   UNL     1      -6.557  -0.918   0.000  1.00  0.00     0.468 C 
ENDBRANCH   8  24
TORSDOF 8
