REMARK SMILES CC(C)=CCC[C@H](C=O)[C@@H]1CC[C@]2(C)C3=CC[C@H]4C(C)(C)C(=O)CC[C@]4(C)[C@H]3CC[C@@]12C
REMARK SMILES IDX 5 1 4 2 2 3 1 4 3 5 6 6 7 7 8 8 9 9 10 10 11 11 31 12 12 13
REMARK SMILES IDX 30 14 13 15 29 16 15 17 28 18 16 19 26 20 17 21 25 22 18 23
REMARK SMILES IDX 24 24 19 25 22 26 32 27 14 28 27 29 20 30 21 31 23 32
REMARK H PARENT
ROOT
ATOM      1  C   UNL     1       6.152  -0.123   0.000  1.00  0.00     0.028 C 
ENDROOT
BRANCH   1   2
ATOM      2  C   UNL     1       7.472   0.590   0.000  1.00  0.00    -0.028 C 
BRANCH   2   3
ATOM      3  C   UNL     1       8.749  -0.196   0.000  1.00  0.00    -0.080 C 
ATOM      4  C   UNL     1      10.069   0.516   0.000  1.00  0.00     0.039 C 
ATOM      5  C   UNL     1       8.707  -1.696   0.000  1.00  0.00     0.039 C 
ENDBRANCH   2   3
ENDBRANCH   1   2
BRANCH   1   6
ATOM      6  C   UNL     1       4.875   0.664   0.000  1.00  0.00     0.015 C 
BRANCH   6   7
ATOM      7  C   UNL     1       3.555  -0.049   0.000  1.00  0.00     0.057 C 
BRANCH   7   8
ATOM      8  C   UNL     1       3.513  -1.549   0.000  1.00  0.00     0.227 C 
ATOM      9  O   UNL     1       4.790  -2.335   0.000  1.00  0.00    -0.303 OA
ENDBRANCH   7   8
BRANCH   7  10
ATOM     10  C   UNL     1       2.278   0.737   0.000  1.00  0.00     0.006 C 
ATOM     11  C   UNL     1       2.164   2.233   0.000  1.00  0.00     0.006 C 
ATOM     12  C   UNL     1       0.891   0.166   0.000  1.00  0.00    -0.020 C 
ATOM     13  C   UNL     1       0.706   2.586   0.000  1.00  0.00     0.012 C 
ATOM     14  C   UNL     1       0.387  -1.247   0.000  1.00  0.00     0.008 C 
ATOM     15  C   UNL     1      -0.081   1.309   0.000  1.00  0.00    -0.006 C 
ATOM     16  C   UNL     1      -1.088  -1.517   0.000  1.00  0.00     0.009 C 
ATOM     17  C   UNL     1      -1.556   1.039   0.000  1.00  0.00    -0.064 C 
ATOM     18  C   UNL     1      -2.060  -0.374   0.000  1.00  0.00     0.021 C 
ATOM     19  C   UNL     1      -2.528   2.181   0.000  1.00  0.00    -0.027 C 
ATOM     20  C   UNL     1      -3.535  -0.644   0.000  1.00  0.00    -0.022 C 
ATOM     21  C   UNL     1      -4.003   1.911   0.000  1.00  0.00     0.032 C 
ATOM     22  C   UNL     1      -4.039  -2.057   0.000  1.00  0.00     0.015 C 
ATOM     23  C   UNL     1      -4.507   0.498   0.000  1.00  0.00     0.012 C 
ATOM     24  C   UNL     1      -5.514  -2.328   0.000  1.00  0.00     0.077 C 
ATOM     25  C   UNL     1      -5.982   0.228   0.000  1.00  0.00     0.027 C 
ATOM     26  C   UNL     1      -6.486  -1.185   0.000  1.00  0.00     0.138 C 
ATOM     27  C   UNL     1       1.977  -0.869   0.000  1.00  0.00     0.012 C 
ATOM     28  C   UNL     1      -0.928   2.547   0.000  1.00  0.00     0.017 C 
ATOM     29  C   UNL     1      -2.564  -1.787   0.000  1.00  0.00     0.012 C 
ATOM     30  C   UNL     1      -7.461   0.479   0.000  1.00  0.00     0.020 C 
ATOM     31  C   UNL     1      -5.992   1.728   0.000  1.00  0.00     0.020 C 
ATOM     32  O   UNL     1      -7.962  -1.455   0.000  1.00  0.00    -0.299 OA
ENDBRANCH   7  10
ENDBRANCH   6   7
ENDBRANCH   1   6
TORSDOF 6
