REMARK SMILES COc1c2c(nc3occc13)[C@@](CC=C(C)C)(OC)[C@H](OC(C)=O)CC2
REMARK SMILES IDX 3 1 4 2 26 3 25 4 20 5 12 6 5 7 6 8 7 9 11 10 10 11 9 12
REMARK SMILES IDX 8 13 2 14 1 15 13 16 14 17 15 18 16 19 17 20 18 21 19 22
REMARK SMILES IDX 21 23 22 24 23 25 24 26
REMARK H PARENT
ROOT
ATOM      1  C   UNL     1      -2.480  -1.657   0.000  1.00  0.00     0.136 A 
ATOM      2  C   UNL     1      -0.988  -1.495   0.000  1.00  0.00     0.020 A 
ATOM      3  C   UNL     1      -0.103  -2.706   0.000  1.00  0.00     0.045 C 
ATOM      4  C   UNL     1       1.389  -2.544   0.000  1.00  0.00     0.054 C 
ATOM      5  C   UNL     1       1.994  -1.172   0.000  1.00  0.00     0.215 C 
ATOM      6  C   UNL     1       1.109   0.039   0.000  1.00  0.00     0.150 C 
ATOM      7  C   UNL     1      -0.383  -0.123   0.000  1.00  0.00     0.087 A 
ATOM      8  N   UNL     1      -1.268   1.088   0.000  1.00  0.00    -0.214 NA
ATOM      9  C   UNL     1      -2.760   0.926   0.000  1.00  0.00     0.229 A 
ATOM     10  C   UNL     1      -3.365  -0.446   0.000  1.00  0.00     0.083 A 
ATOM     11  C   UNL     1      -4.857  -0.294   0.000  1.00  0.00     0.056 A 
ATOM     12  C   UNL     1      -5.174   1.172   0.000  1.00  0.00     0.198 A 
ATOM     13  O   UNL     1      -3.877   1.926   0.000  1.00  0.00    -0.446 OA
ENDROOT
BRANCH   1  14
ATOM     14  O   UNL     1      -3.085  -3.029   0.000  1.00  0.00    -0.496 OA
ATOM     15  C   UNL     1      -4.577  -3.191   0.000  1.00  0.00     0.278 C 
ENDBRANCH   1  14
BRANCH   6  16
ATOM     16  C   UNL     1       0.690   1.479   0.000  1.00  0.00     0.073 C 
BRANCH  16  17
ATOM     17  C   UNL     1       1.729   2.562   0.000  1.00  0.00    -0.025 C 
BRANCH  17  18
ATOM     18  C   UNL     1       1.311   4.002   0.000  1.00  0.00    -0.080 C 
ATOM     19  C   UNL     1       2.349   5.085   0.000  1.00  0.00     0.039 C 
ATOM     20  C   UNL     1      -0.146   4.361   0.000  1.00  0.00     0.039 C 
ENDBRANCH  17  18
ENDBRANCH  16  17
ENDBRANCH   6  16
BRANCH   6  21
ATOM     21  O   UNL     1       2.455   0.701   0.000  1.00  0.00    -0.368 OA
ATOM     22  C   UNL     1       2.554   2.197   0.000  1.00  0.00     0.196 C 
ENDBRANCH   6  21
BRANCH   5  23
ATOM     23  O   UNL     1       3.485  -1.010   0.000  1.00  0.00    -0.459 OA
BRANCH  23  24
ATOM     24  C   UNL     1       4.371  -2.221   0.000  1.00  0.00     0.303 C 
ATOM     25  C   UNL     1       5.862  -2.059   0.000  1.00  0.00     0.139 C 
ATOM     26  O   UNL     1       3.765  -3.593   0.000  1.00  0.00    -0.253 OA
ENDBRANCH  23  24
ENDBRANCH   5  23
TORSDOF 7
