REMARK SMILES COc1cc(-c2oc3cc(OC)c(OC)c(OC)c3c(=O)c2OC)cc(OC)c1OC
REMARK SMILES IDX 6 1 22 2 20 3 21 4 19 5 16 6 13 7 10 8 9 9 8 10 7 11 5 12
REMARK SMILES IDX 3 13 4 14 29 15 26 16 25 17 2 18 1 19 30 20 31 21 27 22
REMARK SMILES IDX 28 23 23 24 24 25 17 26 18 27 11 28 12 29 14 30 15 31
REMARK H PARENT
ROOT
ATOM      1  C   UNL     1      -0.556  -0.193   0.000  1.00  0.00     0.180 A 
ATOM      2  C   UNL     1       0.050  -1.565   0.000  1.00  0.00     0.210 A 
ATOM      3  C   UNL     1       1.541  -1.726   0.000  1.00  0.00     0.239 A 
ATOM      4  O   UNL     1       2.147  -3.098   0.000  1.00  0.00    -0.285 OA
ATOM      5  C   UNL     1       2.426  -0.515   0.000  1.00  0.00     0.115 A 
ATOM      6  C   UNL     1       3.918  -0.676   0.000  1.00  0.00     0.179 A 
ATOM      7  C   UNL     1       4.803   0.535   0.000  1.00  0.00     0.204 A 
ATOM      8  C   UNL     1       4.197   1.907   0.000  1.00  0.00     0.168 A 
ATOM      9  C   UNL     1       2.705   2.068   0.000  1.00  0.00     0.098 A 
ATOM     10  C   UNL     1       1.820   0.857   0.000  1.00  0.00     0.146 A 
ATOM     11  O   UNL     1       0.329   1.018   0.000  1.00  0.00    -0.452 OA
ENDROOT
BRANCH   1  12
ATOM     12  C   UNL     1      -2.047  -0.032   0.000  1.00  0.00     0.029 A 
ATOM     13  C   UNL     1      -4.145   1.502   0.000  1.00  0.00     0.165 A 
ATOM     14  C   UNL     1      -2.654   1.340   0.000  1.00  0.00     0.062 A 
ATOM     15  C   UNL     1      -5.030   0.290   0.000  1.00  0.00     0.203 A 
ATOM     16  C   UNL     1      -4.424  -1.081   0.000  1.00  0.00     0.165 A 
ATOM     17  C   UNL     1      -2.933  -1.243   0.000  1.00  0.00     0.062 A 
BRANCH  13  18
ATOM     18  O   UNL     1      -4.751   2.874   0.000  1.00  0.00    -0.493 OA
ATOM     19  C   UNL     1      -3.866   4.085   0.000  1.00  0.00     0.278 C 
ENDBRANCH  13  18
BRANCH  15  20
ATOM     20  O   UNL     1      -6.521   0.452   0.000  1.00  0.00    -0.490 OA
ATOM     21  C   UNL     1      -7.128   1.824   0.000  1.00  0.00     0.278 C 
ENDBRANCH  15  20
BRANCH  16  22
ATOM     22  O   UNL     1      -5.309  -2.292   0.000  1.00  0.00    -0.493 OA
ATOM     23  C   UNL     1      -6.801  -2.131   0.000  1.00  0.00     0.278 C 
ENDBRANCH  16  22
ENDBRANCH   1  12
BRANCH   2  24
ATOM     24  O   UNL     1      -0.835  -2.776   0.000  1.00  0.00    -0.490 OA
ATOM     25  C   UNL     1      -2.327  -2.615   0.000  1.00  0.00     0.278 C 
ENDBRANCH   2  24
BRANCH   6  26
ATOM     26  O   UNL     1       4.524  -2.048   0.000  1.00  0.00    -0.492 OA
ATOM     27  C   UNL     1       6.015  -2.209   0.000  1.00  0.00     0.278 C 
ENDBRANCH   6  26
BRANCH   8  28
ATOM     28  O   UNL     1       5.082   3.118   0.000  1.00  0.00    -0.493 OA
ATOM     29  C   UNL     1       6.573   2.957   0.000  1.00  0.00     0.278 C 
ENDBRANCH   8  28
BRANCH   7  30
ATOM     30  O   UNL     1       6.294   0.374   0.000  1.00  0.00    -0.490 OA
ATOM     31  C   UNL     1       6.900  -0.998   0.000  1.00  0.00     0.278 C 
ENDBRANCH   7  30
TORSDOF 8
