REMARK SMILES C[C@@H](C1OC(C)(C)[C@H](O)[C@H]1O)[C@@H]1CC[C@]2(C)C3=CC[C@H]4C(C)(C)[C@H](O)CC[C@]4(C)[C@H]3CC[C@@]12C
REMARK SMILES IDX 1 1 2 2 3 3 4 4 10 5 5 6 8 7 6 8 7 9 11 10 9 12 12 14 13 15
REMARK SMILES IDX 33 16 14 17 32 18 15 19 31 20 17 21 30 22 18 23 28 24 19 25
REMARK SMILES IDX 27 26 20 27 26 28 21 29 24 30 34 31 16 32 29 33 22 34 23 35
REMARK SMILES IDX 25 36
REMARK H PARENT 11 11 9 13 25 37
ROOT
ATOM      1  C   UNL     1       4.887  -2.645   0.000  1.00  0.00     0.011 C 
ATOM      2  C   UNL     1       3.771  -1.643   0.000  1.00  0.00     0.021 C 
ENDROOT
BRANCH   2   3
ATOM      3  C   UNL     1       4.081  -0.175   0.000  1.00  0.00     0.153 C 
ATOM      4  O   UNL     1       3.076   0.939   0.000  1.00  0.00    -0.366 OA
ATOM      5  C   UNL     1       5.451   0.437   0.000  1.00  0.00     0.175 C 
ATOM      6  C   UNL     1       3.825   2.238   0.000  1.00  0.00     0.092 C 
ATOM      7  C   UNL     1       5.292   1.928   0.000  1.00  0.00     0.177 C 
ATOM      8  C   UNL     1       2.454   2.847   0.000  1.00  0.00     0.045 C 
ATOM      9  C   UNL     1       4.286   3.666   0.000  1.00  0.00     0.045 C 
BRANCH   5  10
ATOM     10  O   UNL     1       6.751  -0.312   0.000  1.00  0.00    -0.388 OA
ATOM     11  H   UNL     1       0.000   0.000   0.000  1.00  0.00     0.211 HD
ENDBRANCH   5  10
BRANCH   7  12
ATOM     12  O   UNL     1       6.406   2.933   0.000  1.00  0.00    -0.387 OA
ATOM     13  H   UNL     1       0.000   0.000   0.000  1.00  0.00     0.211 HD
ENDBRANCH   7  12
ENDBRANCH   2   3
BRANCH   2  14
ATOM     14  C   UNL     1       2.345  -2.108   0.000  1.00  0.00     0.001 C 
ATOM     15  C   UNL     1       1.883  -3.535   0.000  1.00  0.00     0.005 C 
ATOM     16  C   UNL     1       1.131  -1.228   0.000  1.00  0.00    -0.020 C 
ATOM     17  C   UNL     1       0.383  -3.537   0.000  1.00  0.00     0.012 C 
ATOM     18  C   UNL     1       0.972   0.264   0.000  1.00  0.00     0.008 C 
ATOM     19  C   UNL     1      -0.082  -2.111   0.000  1.00  0.00    -0.006 C 
ATOM     20  C   UNL     1      -0.399   0.873   0.000  1.00  0.00     0.009 C 
ATOM     21  C   UNL     1      -1.453  -1.502   0.000  1.00  0.00    -0.064 C 
ATOM     22  C   UNL     1      -1.612  -0.011   0.000  1.00  0.00     0.021 C 
ATOM     23  C   UNL     1      -2.666  -2.385   0.000  1.00  0.00    -0.027 C 
ATOM     24  C   UNL     1      -2.983   0.598   0.000  1.00  0.00    -0.022 C 
ATOM     25  C   UNL     1      -4.037  -1.777   0.000  1.00  0.00     0.032 C 
ATOM     26  C   UNL     1      -3.141   2.089   0.000  1.00  0.00     0.010 C 
ATOM     27  C   UNL     1      -4.195  -0.285   0.000  1.00  0.00     0.007 C 
ATOM     28  C   UNL     1      -4.512   2.698   0.000  1.00  0.00     0.033 C 
ATOM     29  C   UNL     1      -5.566   0.323   0.000  1.00  0.00    -0.006 C 
ATOM     30  C   UNL     1      -5.725   1.815   0.000  1.00  0.00     0.120 C 
ATOM     31  C   UNL     1       2.429  -0.476   0.000  1.00  0.00     0.012 C 
ATOM     32  C   UNL     1      -1.196  -3.116   0.000  1.00  0.00     0.017 C 
ATOM     33  C   UNL     1      -1.770   1.481   0.000  1.00  0.00     0.012 C 
ATOM     34  C   UNL     1      -7.063   0.426   0.000  1.00  0.00     0.014 C 
ATOM     35  C   UNL     1      -5.927  -1.133   0.000  1.00  0.00     0.014 C 
BRANCH  30  36
ATOM     36  O   UNL     1      -7.096   2.423   0.000  1.00  0.00    -0.393 OA
ATOM     37  H   UNL     1       0.000   0.000   0.000  1.00  0.00     0.210 HD
ENDBRANCH  30  36
ENDBRANCH   2  14
TORSDOF 5
