REMARK SMILES CC(=O)O[C@@H]1[C@@H]2O[C@H]2[C@@](C)(O)C(=O)[C@@H](C)C/C=C\[C@H]2[C@H](O)[C@]3(C)O[C@]3(C)[C@H]3[C@H](Cc4ccccc4)NC(=O)[C@@]123
REMARK SMILES IDX 19 1 20 2 22 3 23 4 24 5 25 6 26 7 27 8 28 9 36 10 37 11
REMARK SMILES IDX 38 12 39 13 5 15 4 16 2 17 1 18 3 19 6 20 7 21 8 22 9 23
REMARK SMILES IDX 10 24 11 25 12 27 13 28 18 30 17 31 16 32 14 33 15 34 21 36
REMARK SMILES IDX 29 38 30 39 31 40 35 41 32 42 34 43 33 44
REMARK H PARENT 36 14 11 26 21 37
REMARK Flexibility Score:   23.900
ROOT
ATOM      1  C   UNL     1      -0.377   2.134   0.000  1.00  0.00     0.063 C 
ATOM      2  C   UNL     1       0.667   3.211   0.000  1.00  0.00     0.157 C 
ATOM      3  C   UNL     1       2.122   2.846   0.000  1.00  0.00     0.122 C 
ATOM      4  C   UNL     1       2.487   4.301   0.000  1.00  0.00     0.048 C 
ATOM      5  O   UNL     1       3.577   2.481   0.000  1.00  0.00    -0.360 OA
ATOM      6  C   UNL     1       2.533   1.404   0.000  1.00  0.00     0.104 C 
ATOM      7  C   UNL     1       3.701   0.727   0.000  1.00  0.00     0.046 C 
ATOM      8  C   UNL     1       1.490   0.326   0.000  1.00  0.00     0.067 C 
ATOM      9  C   UNL     1       1.592  -1.170   0.000  1.00  0.00     0.093 C 
ATOM     10  N   UNL     1       0.200  -1.730   0.000  1.00  0.00    -0.352 N 
ATOM     11  C   UNL     1      -0.762  -0.580   0.000  1.00  0.00     0.231 C 
ATOM     12  O   UNL     1      -2.259  -0.682   0.000  1.00  0.00    -0.274 OA
ATOM     13  C   UNL     1       0.035   0.691   0.000  1.00  0.00     0.105 C 
ATOM     14  H   UNL     1       0.000   0.000   0.000  1.00  0.00     0.163 HD
ENDROOT
BRANCH  13  15
ATOM     15  C   UNL     1      -0.399  -0.745   0.000  1.00  0.00     0.225 C 
BRANCH  15  16
ATOM     16  O   UNL     1       0.856  -1.565   0.000  1.00  0.00    -0.458 OA
BRANCH  16  17
ATOM     17  C   UNL     1       0.773  -3.063   0.000  1.00  0.00     0.303 C 
ATOM     18  C   UNL     1       2.028  -3.884   0.000  1.00  0.00     0.139 C 
ATOM     19  O   UNL     1      -0.566  -3.740   0.000  1.00  0.00    -0.253 OA
ENDBRANCH  16  17
ENDBRANCH  15  16
BRANCH  15  20
ATOM     20  C   UNL     1      -1.541  -1.718   0.000  1.00  0.00     0.193 C 
ATOM     21  O   UNL     1      -2.109  -3.106   0.000  1.00  0.00    -0.362 OA
ATOM     22  C   UNL     1      -3.027  -1.920   0.000  1.00  0.00     0.190 C 
BRANCH  22  23
ATOM     23  C   UNL     1      -4.386  -1.286   0.000  1.00  0.00     0.149 C 
ATOM     24  C   UNL     1      -5.847  -1.628   0.000  1.00  0.00     0.054 C 
BRANCH  23  25
ATOM     25  O   UNL     1      -4.541  -2.778   0.000  1.00  0.00    -0.379 OA
ATOM     26  H   UNL     1       0.000   0.000   0.000  1.00  0.00     0.212 HD
ENDBRANCH  23  25
BRANCH  23  27
ATOM     27  C   UNL     1      -5.188  -0.018   0.000  1.00  0.00     0.169 CG0
ATOM     28  O   UNL     1      -6.630  -0.429   0.000  1.00  0.00    -0.296 OA
ATOM     29  G   UNL     1      -5.176   1.482   0.000  1.00  0.00     0.000 G0
ENDBRANCH  23  27
ENDBRANCH  22  23
ENDBRANCH  15  20
ENDBRANCH  13  15
BRANCH   1  30
ATOM     30  C   UNL     1      -1.502   3.125   0.000  1.00  0.00    -0.024 C 
BRANCH  30  31
ATOM     31  C   UNL     1      -2.986   3.350   0.000  1.00  0.00    -0.030 C 
BRANCH  31  32
ATOM     32  C   UNL     1      -4.355   2.738   0.000  1.00  0.00     0.038 C 
BRANCH  32  33
ATOM     33  C   UNL     1      -5.176   1.482   0.000  1.00  0.00     0.060 CG0
ATOM     34  C   UNL     1      -6.612   1.916   0.000  1.00  0.00     0.016 C 
ATOM     35  G   UNL     1      -5.188  -0.018   0.000  1.00  0.00     0.000 G0
ENDBRANCH  32  33
ENDBRANCH  31  32
ENDBRANCH  30  31
ENDBRANCH   1  30
BRANCH   2  36
ATOM     36  O   UNL     1       0.256   4.654   0.000  1.00  0.00    -0.389 OA
ATOM     37  H   UNL     1       0.000   0.000   0.000  1.00  0.00     0.211 HD
ENDBRANCH   2  36
BRANCH   9  38
ATOM     38  C   UNL     1       2.863  -1.967   0.000  1.00  0.00     0.060 C 
BRANCH  38  39
ATOM     39  C   UNL     1       4.188  -1.265   0.000  1.00  0.00    -0.046 A 
ATOM     40  C   UNL     1       5.459  -2.062   0.000  1.00  0.00     0.004 A 
ATOM     41  C   UNL     1       4.243   0.234   0.000  1.00  0.00     0.004 A 
ATOM     42  C   UNL     1       6.785  -1.360   0.000  1.00  0.00     0.000 A 
ATOM     43  C   UNL     1       5.568   0.936   0.000  1.00  0.00     0.000 A 
ATOM     44  C   UNL     1       6.839   0.139   0.000  1.00  0.00     0.000 A 
ENDBRANCH  38  39
ENDBRANCH   9  38
TORSDOF 6
