REMARK SMILES Cc1ccc(C)c2c1C[C@H](C(C)(C)O)CC2=O
REMARK SMILES IDX 11 1 12 2 13 3 10 4 2 5 3 6 8 7 4 8 7 9 9 10 5 11 16 12
REMARK SMILES IDX 15 13 1 14 6 15 17 16 14 17
REMARK H PARENT 14 18
ROOT
ATOM      1  C   UNL     1       3.241  -0.130   0.000  1.00  0.00     0.063 C 
ATOM      2  C   UNL     1       3.477   1.352   0.000  1.00  0.00     0.042 C 
ATOM      3  C   UNL     1       3.005  -1.611   0.000  1.00  0.00     0.042 C 
ENDROOT
BRANCH   1   4
ATOM      4  C   UNL     1       1.759   0.106   0.000  1.00  0.00     0.032 C 
ATOM      5  C   UNL     1      -1.612  -1.987   0.000  1.00  0.00    -0.047 A 
ATOM      6  C   UNL     1      -3.094  -1.751   0.000  1.00  0.00     0.004 A 
ATOM      7  C   UNL     1      -0.667  -0.822   0.000  1.00  0.00    -0.034 A 
ATOM      8  C   UNL     1      -3.630  -0.350   0.000  1.00  0.00     0.004 A 
ATOM      9  C   UNL     1      -1.203   0.579   0.000  1.00  0.00     0.024 A 
ATOM     10  C   UNL     1       0.814  -1.058   0.000  1.00  0.00     0.043 C 
ATOM     11  C   UNL     1      -2.685   0.815   0.000  1.00  0.00    -0.040 A 
ATOM     12  C   UNL     1      -0.258   1.744   0.000  1.00  0.00     0.163 C 
ATOM     13  C   UNL     1       1.223   1.507   0.000  1.00  0.00     0.088 C 
ATOM     14  C   UNL     1      -1.076  -3.388   0.000  1.00  0.00     0.044 C 
ATOM     15  C   UNL     1      -3.221   2.216   0.000  1.00  0.00     0.045 C 
ATOM     16  O   UNL     1      -0.794   3.144   0.000  1.00  0.00    -0.294 OA
ENDBRANCH   1   4
BRANCH   1  17
ATOM     17  O   UNL     1       4.722  -0.366   0.000  1.00  0.00    -0.390 OA
ATOM     18  H   UNL     1       0.000   0.000   0.000  1.00  0.00     0.211 HD
ENDBRANCH   1  17
TORSDOF 2
