REMARK SMILES COC(=O)[C@]12CCC(C)(C)[C@@H](O)[C@H]1C1=CC[C@@H]3[C@@]4(C)CC[C@H](OC(C)=O)C(COC(C)=O)(COC(C)=O)[C@@H]4CC[C@@]3(C)[C@]1(C)CC2
REMARK SMILES IDX 5 1 6 2 7 3 8 4 9 5 10 6 11 7 13 8 14 9 15 10 16 11 17 12
REMARK SMILES IDX 18 13 19 14 20 15 21 16 22 17 27 18 38 19 39 20 40 21 41 22
REMARK SMILES IDX 42 23 43 24 44 25 45 26 46 27 3 28 4 29 2 30 1 31 12 32
REMARK SMILES IDX 28 34 29 35 30 36 31 37 32 38 33 39 34 40 35 41 36 42 37 43
REMARK SMILES IDX 23 44 24 45 25 46 26 47
REMARK H PARENT 12 33
ROOT
ATOM      1  C   UNL     1       5.236  -0.586   0.000  1.00  0.00     0.077 C 
ATOM      2  C   UNL     1       6.734  -0.659   0.000  1.00  0.00     0.020 C 
ATOM      3  C   UNL     1       7.546   0.602   0.000  1.00  0.00     0.010 C 
ATOM      4  C   UNL     1       6.860   1.936   0.000  1.00  0.00    -0.009 C 
ATOM      5  C   UNL     1       6.672   3.424   0.000  1.00  0.00     0.014 C 
ATOM      6  C   UNL     1       8.293   2.380   0.000  1.00  0.00     0.014 C 
ATOM      7  C   UNL     1       5.362   2.009   0.000  1.00  0.00     0.128 C 
ATOM      8  C   UNL     1       4.550   0.748   0.000  1.00  0.00     0.062 C 
ATOM      9  C   UNL     1       3.052   0.820   0.000  1.00  0.00    -0.061 C 
ATOM     10  C   UNL     1       2.366   2.154   0.000  1.00  0.00    -0.026 C 
ATOM     11  C   UNL     1       0.868   2.227   0.000  1.00  0.00     0.032 C 
ATOM     12  C   UNL     1       0.055   0.966   0.000  1.00  0.00     0.006 C 
ATOM     13  C   UNL     1      -1.443   1.039   0.000  1.00  0.00    -0.025 C 
ATOM     14  C   UNL     1      -0.631   2.300   0.000  1.00  0.00     0.012 C 
ATOM     15  C   UNL     1      -2.129   2.373   0.000  1.00  0.00     0.011 C 
ATOM     16  C   UNL     1      -3.627   2.445   0.000  1.00  0.00     0.047 C 
ATOM     17  C   UNL     1      -4.439   1.184   0.000  1.00  0.00     0.189 C 
ATOM     18  C   UNL     1      -3.753  -0.150   0.000  1.00  0.00     0.079 C 
ATOM     19  C   UNL     1      -2.255  -0.223   0.000  1.00  0.00     0.012 C 
ATOM     20  C   UNL     1      -1.569  -1.556   0.000  1.00  0.00     0.006 C 
ATOM     21  C   UNL     1      -0.071  -1.629   0.000  1.00  0.00     0.008 C 
ATOM     22  C   UNL     1       0.741  -0.368   0.000  1.00  0.00    -0.020 C 
ATOM     23  C   UNL     1       1.427  -1.702   0.000  1.00  0.00     0.012 C 
ATOM     24  C   UNL     1       2.240  -0.441   0.000  1.00  0.00    -0.006 C 
ATOM     25  C   UNL     1       3.738  -0.514   0.000  1.00  0.00     0.017 C 
ATOM     26  C   UNL     1       2.926  -1.775   0.000  1.00  0.00     0.013 C 
ATOM     27  C   UNL     1       4.424  -1.847   0.000  1.00  0.00     0.020 C 
ENDROOT
BRANCH   1  28
ATOM     28  C   UNL     1       5.922  -1.920   0.000  1.00  0.00     0.312 C 
ATOM     29  O   UNL     1       5.110  -3.181   0.000  1.00  0.00    -0.252 OA
BRANCH  28  30
ATOM     30  O   UNL     1       7.420  -1.993   0.000  1.00  0.00    -0.469 OA
ATOM     31  C   UNL     1       8.107  -3.327   0.000  1.00  0.00     0.282 C 
ENDBRANCH  28  30
ENDBRANCH   1  28
BRANCH   7  32
ATOM     32  O   UNL     1       4.676   3.342   0.000  1.00  0.00    -0.392 OA
ATOM     33  H   UNL     1       0.000   0.000   0.000  1.00  0.00     0.211 HD
ENDBRANCH   7  32
BRANCH  18  34
ATOM     34  C   UNL     1      -3.565  -1.638   0.000  1.00  0.00     0.247 C 
BRANCH  34  35
ATOM     35  O   UNL     1      -4.759  -2.545   0.000  1.00  0.00    -0.465 OA
BRANCH  35  36
ATOM     36  C   UNL     1      -4.571  -4.033   0.000  1.00  0.00     0.302 C 
ATOM     37  C   UNL     1      -5.765  -4.940   0.000  1.00  0.00     0.139 C 
ATOM     38  O   UNL     1      -3.188  -4.614   0.000  1.00  0.00    -0.253 OA
ENDBRANCH  35  36
ENDBRANCH  34  35
ENDBRANCH  18  34
BRANCH  18  39
ATOM     39  C   UNL     1      -5.186  -0.594   0.000  1.00  0.00     0.247 C 
BRANCH  39  40
ATOM     40  O   UNL     1      -6.287   0.425   0.000  1.00  0.00    -0.465 OA
BRANCH  40  41
ATOM     41  C   UNL     1      -7.720  -0.019   0.000  1.00  0.00     0.302 C 
ATOM     42  C   UNL     1      -8.821   1.000   0.000  1.00  0.00     0.139 C 
ATOM     43  O   UNL     1      -8.052  -1.482   0.000  1.00  0.00    -0.253 OA
ENDBRANCH  40  41
ENDBRANCH  39  40
ENDBRANCH  18  39
BRANCH  17  44
ATOM     44  O   UNL     1      -5.938   1.257   0.000  1.00  0.00    -0.462 OA
BRANCH  44  45
ATOM     45  C   UNL     1      -6.624   2.591   0.000  1.00  0.00     0.302 C 
ATOM     46  C   UNL     1      -8.122   2.664   0.000  1.00  0.00     0.139 C 
ATOM     47  O   UNL     1      -5.811   3.852   0.000  1.00  0.00    -0.253 OA
ENDBRANCH  44  45
ENDBRANCH  17  44
TORSDOF 11
