REMARK SMILES CCCOc1ccccc1O
REMARK SMILES IDX 4 1 3 2 2 3 1 4 5 5 6 6 10 7 7 8 9 9 8 10 11 11
REMARK H PARENT 11 12
ROOT
ATOM      1  O   UNL     1      -1.046  -0.684   0.000  1.00  0.00    -0.490 OA
ENDROOT
BRANCH   1   2
ATOM      2  C   UNL     1      -2.233   0.233   0.000  1.00  0.00     0.229 C 
BRANCH   2   3
ATOM      3  C   UNL     1      -3.620  -0.337   0.000  1.00  0.00     0.038 C 
ATOM      4  C   UNL     1      -4.808   0.580   0.000  1.00  0.00     0.007 C 
ENDBRANCH   2   3
ENDBRANCH   1   2
BRANCH   1   5
ATOM      5  C   UNL     1       0.342  -0.115   0.000  1.00  0.00     0.160 A 
ATOM      6  C   UNL     1       0.543   1.372   0.000  1.00  0.00     0.050 A 
ATOM      7  C   UNL     1       1.529  -1.032   0.000  1.00  0.00     0.157 A 
ATOM      8  C   UNL     1       1.930   1.941   0.000  1.00  0.00     0.004 A 
ATOM      9  C   UNL     1       2.917  -0.462   0.000  1.00  0.00     0.050 A 
ATOM     10  C   UNL     1       3.117   1.024   0.000  1.00  0.00     0.004 A 
BRANCH   7  11
ATOM     11  O   UNL     1       1.328  -2.518   0.000  1.00  0.00    -0.504 OA
ATOM     12  H   UNL     1       0.000   0.000   0.000  1.00  0.00     0.293 HD
ENDBRANCH   7  11
ENDBRANCH   1   5
TORSDOF 4
