REMARK SMILES COc1cc2oc(-c3ccc4c(c3)OCO4)cc(=O)c2c(O)c1OC
REMARK SMILES IDX 3 1 4 2 5 3 20 4 21 5 23 6 18 7 19 8 17 9 7 10 6 11 2 12
REMARK SMILES IDX 1 13 24 14 25 15 22 16 8 18 9 19 13 20 10 21 12 22 11 23
REMARK SMILES IDX 14 24 16 25 15 26
REMARK H PARENT 22 17
ROOT
ATOM      1  C   UNL     1      -4.000   1.129   0.000  1.00  0.00     0.168 A 
ATOM      2  C   UNL     1      -2.555   1.529   0.000  1.00  0.00     0.098 A 
ATOM      3  C   UNL     1      -1.485   0.477   0.000  1.00  0.00     0.146 A 
ATOM      4  C   UNL     1      -1.861  -0.975   0.000  1.00  0.00     0.111 A 
ATOM      5  C   UNL     1      -3.307  -1.375   0.000  1.00  0.00     0.176 A 
ATOM      6  C   UNL     1      -4.376  -0.324   0.000  1.00  0.00     0.204 A 
ATOM      7  C   UNL     1      -0.791  -2.026   0.000  1.00  0.00     0.197 A 
ATOM      8  O   UNL     1      -1.167  -3.478   0.000  1.00  0.00    -0.289 OA
ATOM      9  C   UNL     1       0.654  -1.626   0.000  1.00  0.00     0.100 A 
ATOM     10  C   UNL     1       1.030  -0.174   0.000  1.00  0.00     0.138 A 
ATOM     11  O   UNL     1      -0.040   0.878   0.000  1.00  0.00    -0.456 OA
ENDROOT
BRANCH   1  12
ATOM     12  O   UNL     1      -5.070   2.180   0.000  1.00  0.00    -0.493 OA
ATOM     13  C   UNL     1      -4.694   3.632   0.000  1.00  0.00     0.278 C 
ENDBRANCH   1  12
BRANCH   6  14
ATOM     14  O   UNL     1      -5.822  -0.724   0.000  1.00  0.00    -0.490 OA
ATOM     15  C   UNL     1      -6.891   0.327   0.000  1.00  0.00     0.278 C 
ENDBRANCH   6  14
BRANCH   5  16
ATOM     16  O   UNL     1      -3.683  -2.827   0.000  1.00  0.00    -0.504 OA
ATOM     17  H   UNL     1       0.000   0.000   0.000  1.00  0.00     0.293 HD
ENDBRANCH   5  16
BRANCH  10  18
ATOM     18  C   UNL     1       2.475   0.227   0.000  1.00  0.00     0.021 A 
ATOM     19  C   UNL     1       2.851   1.679   0.000  1.00  0.00     0.016 A 
ATOM     20  C   UNL     1       3.545  -0.825   0.000  1.00  0.00     0.062 A 
ATOM     21  C   UNL     1       4.297   2.080   0.000  1.00  0.00     0.051 A 
ATOM     22  C   UNL     1       4.991  -0.424   0.000  1.00  0.00     0.166 A 
ATOM     23  C   UNL     1       5.367   1.028   0.000  1.00  0.00     0.165 A 
ATOM     24  O   UNL     1       6.256  -1.230   0.000  1.00  0.00    -0.454 OA
ATOM     25  O   UNL     1       6.864   1.119   0.000  1.00  0.00    -0.454 OA
ATOM     26  C   UNL     1       7.413  -0.277   0.000  1.00  0.00     0.468 C 
ENDBRANCH  10  18
TORSDOF 4
