REMARK SMILES COc1c(O)cc(C)c2c(=O)cc(C)oc12
REMARK SMILES IDX 3 1 4 2 6 3 7 4 8 5 9 6 16 7 15 8 13 9 14 10 12 11 10 12
REMARK SMILES IDX 11 13 2 14 1 15 5 16
REMARK H PARENT 5 17
ROOT
ATOM      1  C   UNL     1      -1.520  -0.637   0.000  1.00  0.00     0.204 A 
ATOM      2  C   UNL     1      -2.327   0.626   0.000  1.00  0.00     0.161 A 
ATOM      3  C   UNL     1      -1.637   1.958   0.000  1.00  0.00     0.054 A 
ATOM      4  C   UNL     1      -0.138   2.026   0.000  1.00  0.00    -0.032 A 
ATOM      5  C   UNL     1       0.552   3.357   0.000  1.00  0.00     0.045 C 
ATOM      6  C   UNL     1       0.669   0.762   0.000  1.00  0.00     0.072 A 
ATOM      7  C   UNL     1      -0.021  -0.570   0.000  1.00  0.00     0.184 A 
ATOM      8  O   UNL     1       0.786  -1.834   0.000  1.00  0.00    -0.457 OA
ATOM      9  C   UNL     1       2.285  -1.766   0.000  1.00  0.00     0.105 A 
ATOM     10  C   UNL     1       3.093  -3.030   0.000  1.00  0.00     0.088 C 
ATOM     11  C   UNL     1       2.976  -0.435   0.000  1.00  0.00     0.094 A 
ATOM     12  C   UNL     1       2.168   0.829   0.000  1.00  0.00     0.193 A 
ATOM     13  O   UNL     1       2.859   2.161   0.000  1.00  0.00    -0.289 OA
ENDROOT
BRANCH   1  14
ATOM     14  O   UNL     1      -2.211  -1.969   0.000  1.00  0.00    -0.490 OA
ATOM     15  C   UNL     1      -3.709  -2.036   0.000  1.00  0.00     0.278 C 
ENDBRANCH   1  14
BRANCH   2  16
ATOM     16  O   UNL     1      -3.826   0.559   0.000  1.00  0.00    -0.504 OA
ATOM     17  H   UNL     1       0.000   0.000   0.000  1.00  0.00     0.293 HD
ENDBRANCH   2  16
TORSDOF 2
