REMARK SMILES CC1(C)C=Cc2c(ccc3[nH]cc(CCn4c(=O)c5ccccc5n(O)c4=O)c23)O1
REMARK SMILES IDX 15 1 14 2 13 3 2 4 4 5 30 6 5 7 7 8 6 9 8 10 29 11 9 12
REMARK SMILES IDX 10 13 11 14 12 15 1 16 3 17 16 19 17 20 27 21 19 22 25 23
REMARK SMILES IDX 20 24 24 25 21 26 23 27 22 28 18 29 28 30 26 31
REMARK H PARENT 11 18 26 32
ROOT
ATOM      1  C   UNL     1      -1.183   1.622   0.000  1.00  0.00     0.136 C 
ENDROOT
BRANCH   1   2
ATOM      2  C   UNL     1       0.192   1.023   0.000  1.00  0.00     0.060 C 
BRANCH   2   3
ATOM      3  C   UNL     1       1.399   1.914   0.000  1.00  0.00    -0.020 A 
ATOM      4  C   UNL     1       4.692  -2.634   0.000  1.00  0.00     0.122 C 
ATOM      5  C   UNL     1       3.199  -2.489   0.000  1.00  0.00     0.021 C 
ATOM      6  O   UNL     1       5.564  -1.414   0.000  1.00  0.00    -0.483 OA
ATOM      7  C   UNL     1       2.578  -1.124   0.000  1.00  0.00     0.012 C 
ATOM      8  C   UNL     1       4.943  -0.048   0.000  1.00  0.00     0.128 A 
ATOM      9  C   UNL     1       3.450   0.097   0.000  1.00  0.00     0.026 A 
ATOM     10  C   UNL     1       5.815   1.172   0.000  1.00  0.00     0.049 A 
ATOM     11  C   UNL     1       2.829   1.462   0.000  1.00  0.00     0.014 A 
ATOM     12  C   UNL     1       5.194   2.538   0.000  1.00  0.00     0.030 A 
ATOM     13  C   UNL     1       3.701   2.683   0.000  1.00  0.00     0.047 A 
ATOM     14  N   UNL     1       2.810   3.889   0.000  1.00  0.00    -0.361 N 
ATOM     15  C   UNL     1       1.387   3.414   0.000  1.00  0.00     0.087 A 
ATOM     16  C   UNL     1       6.045  -3.281   0.000  1.00  0.00     0.061 C 
ATOM     17  C   UNL     1       4.290  -4.079   0.000  1.00  0.00     0.061 C 
ATOM     18  H   UNL     1       0.000   0.000   0.000  1.00  0.00     0.166 HD
ENDBRANCH   2   3
ENDBRANCH   1   2
BRANCH   1  19
ATOM     19  N   UNL     1      -2.389   0.731   0.000  1.00  0.00    -0.257 N 
ATOM     20  C   UNL     1      -3.764   1.330   0.000  1.00  0.00     0.264 A 
ATOM     21  C   UNL     1      -2.221  -0.760   0.000  1.00  0.00     0.364 A 
ATOM     22  C   UNL     1      -4.971   0.439   0.000  1.00  0.00     0.067 A 
ATOM     23  N   UNL     1      -3.427  -1.651   0.000  1.00  0.00    -0.132 N 
ATOM     24  C   UNL     1      -6.346   1.038   0.000  1.00  0.00     0.016 A 
ATOM     25  C   UNL     1      -4.802  -1.052   0.000  1.00  0.00     0.098 A 
ATOM     26  C   UNL     1      -7.553   0.147   0.000  1.00  0.00     0.001 A 
ATOM     27  C   UNL     1      -6.009  -1.943   0.000  1.00  0.00     0.031 A 
ATOM     28  C   UNL     1      -7.384  -1.344   0.000  1.00  0.00     0.002 A 
ATOM     29  O   UNL     1      -3.933   2.821   0.000  1.00  0.00    -0.268 OA
ATOM     30  O   UNL     1      -0.846  -1.359   0.000  1.00  0.00    -0.244 OA
BRANCH  23  31
ATOM     31  O   UNL     1      -3.259  -3.141   0.000  1.00  0.00    -0.424 OA
ATOM     32  H   UNL     1       0.000   0.000   0.000  1.00  0.00     0.328 HD
ENDBRANCH  23  31
ENDBRANCH   1  19
TORSDOF 4
