REMARK SMILES COc1cc([C@@H]2OC[C@@H]3[C@H]2CO[C@@H]3c2ccc3c(c2)OCO3)ccc1OCC=C(C)C
REMARK SMILES IDX 26 1 25 2 3 3 4 4 5 5 24 6 23 7 2 8 1 9 6 10 7 11 10 12 8 13
REMARK SMILES IDX 9 14 11 15 13 16 12 17 14 18 15 19 19 20 16 21 18 22 17 23
REMARK SMILES IDX 20 24 22 25 21 26 27 27 28 28 29 29 30 30 31 31
REMARK H PARENT
ROOT
ATOM      1  O   UNL     1       6.132  -0.449   0.000  1.00  0.00    -0.486 OA
ENDROOT
BRANCH   1   2
ATOM      2  C   UNL     1       4.642  -0.618   0.000  1.00  0.00     0.161 A 
ATOM      3  C   UNL     1       4.043  -1.993   0.000  1.00  0.00     0.161 A 
ATOM      4  C   UNL     1       2.553  -2.162   0.000  1.00  0.00     0.056 A 
ATOM      5  C   UNL     1       1.661  -0.956   0.000  1.00  0.00    -0.015 A 
ATOM      6  C   UNL     1       3.750   0.589   0.000  1.00  0.00     0.051 A 
ATOM      7  C   UNL     1       2.260   0.419   0.000  1.00  0.00     0.010 A 
BRANCH   3   8
ATOM      8  O   UNL     1       4.935  -3.199   0.000  1.00  0.00    -0.493 OA
ATOM      9  C   UNL     1       4.336  -4.574   0.000  1.00  0.00     0.278 C 
ENDBRANCH   3   8
BRANCH   5  10
ATOM     10  C   UNL     1       0.170  -1.125   0.000  1.00  0.00     0.154 C 
ATOM     11  O   UNL     1      -0.569  -2.430   0.000  1.00  0.00    -0.373 OA
ATOM     12  C   UNL     1      -0.843  -0.019   0.000  1.00  0.00     0.057 C 
ATOM     13  C   UNL     1      -2.039  -2.131   0.000  1.00  0.00     0.168 C 
ATOM     14  C   UNL     1      -2.208  -0.640   0.000  1.00  0.00     0.057 C 
ATOM     15  C   UNL     1      -1.012   1.472   0.000  1.00  0.00     0.168 C 
ATOM     16  C   UNL     1      -3.221   0.466   0.000  1.00  0.00     0.154 C 
ATOM     17  O   UNL     1      -2.481   1.771   0.000  1.00  0.00    -0.373 OA
BRANCH  16  18
ATOM     18  C   UNL     1      -4.711   0.297   0.000  1.00  0.00    -0.015 A 
ATOM     19  C   UNL     1      -5.310  -1.078   0.000  1.00  0.00     0.010 A 
ATOM     20  C   UNL     1      -5.603   1.503   0.000  1.00  0.00     0.057 A 
ATOM     21  C   UNL     1      -6.800  -1.247   0.000  1.00  0.00     0.051 A 
ATOM     22  C   UNL     1      -7.093   1.334   0.000  1.00  0.00     0.166 A 
ATOM     23  C   UNL     1      -7.692  -0.041   0.000  1.00  0.00     0.165 A 
ATOM     24  O   UNL     1      -8.216   2.329   0.000  1.00  0.00    -0.454 OA
ATOM     25  O   UNL     1      -9.185   0.103   0.000  1.00  0.00    -0.454 OA
ATOM     26  C   UNL     1      -9.509   1.568   0.000  1.00  0.00     0.468 C 
ENDBRANCH  16  18
ENDBRANCH   5  10
ENDBRANCH   1   2
BRANCH   1  27
ATOM     27  C   UNL     1       6.731   0.927   0.000  1.00  0.00     0.257 C 
BRANCH  27  28
ATOM     28  C   UNL     1       8.221   1.096   0.000  1.00  0.00     0.012 C 
BRANCH  28  29
ATOM     29  C   UNL     1       8.820   2.471   0.000  1.00  0.00    -0.077 C 
ATOM     30  C   UNL     1      10.310   2.640   0.000  1.00  0.00     0.039 C 
ATOM     31  C   UNL     1       7.928   3.677   0.000  1.00  0.00     0.039 C 
ENDBRANCH  28  29
ENDBRANCH  27  28
ENDBRANCH   1  27
TORSDOF 7
