REMARK SMILES COc1cc(CCC(=O)O)c2c(c1OC)C=CC(C)(C)O2
REMARK SMILES IDX 6 1 5 2 3 3 4 4 13 5 12 6 11 7 16 8 21 9 17 10 18 11 19 12
REMARK SMILES IDX 20 13 2 14 1 15 14 16 15 17 7 18 8 19 9 20 10 21
REMARK H PARENT 10 22
ROOT
ATOM      1  C   UNL     1      -2.356  -0.114   0.000  1.00  0.00     0.051 C 
ENDROOT
BRANCH   1   2
ATOM      2  C   UNL     1      -0.936   0.369   0.000  1.00  0.00    -0.001 A 
ATOM      3  C   UNL     1       0.775   2.325   0.000  1.00  0.00     0.161 A 
ATOM      4  C   UNL     1      -0.645   1.841   0.000  1.00  0.00     0.058 A 
ATOM      5  C   UNL     1       1.904   1.337   0.000  1.00  0.00     0.171 A 
ATOM      6  C   UNL     1       1.613  -0.135   0.000  1.00  0.00     0.063 A 
ATOM      7  C   UNL     1       0.193  -0.618   0.000  1.00  0.00     0.135 A 
ATOM      8  C   UNL     1       2.742  -1.122   0.000  1.00  0.00     0.016 C 
ATOM      9  O   UNL     1      -0.098  -2.090   0.000  1.00  0.00    -0.483 OA
ATOM     10  C   UNL     1       2.451  -2.594   0.000  1.00  0.00     0.021 C 
ATOM     11  C   UNL     1       1.031  -3.078   0.000  1.00  0.00     0.122 C 
ATOM     12  C   UNL     1       1.754  -4.392   0.000  1.00  0.00     0.061 C 
ATOM     13  C   UNL     1      -0.138  -4.018   0.000  1.00  0.00     0.061 C 
BRANCH   3  14
ATOM     14  O   UNL     1       1.066   3.796   0.000  1.00  0.00    -0.493 OA
ATOM     15  C   UNL     1       2.486   4.280   0.000  1.00  0.00     0.278 C 
ENDBRANCH   3  14
BRANCH   5  16
ATOM     16  O   UNL     1       3.324   1.821   0.000  1.00  0.00    -0.492 OA
ATOM     17  C   UNL     1       4.452   0.833   0.000  1.00  0.00     0.278 C 
ENDBRANCH   5  16
ENDBRANCH   1   2
BRANCH   1  18
ATOM     18  C   UNL     1      -3.485   0.873   0.000  1.00  0.00     0.127 C 
BRANCH  18  19
ATOM     19  C   UNL     1      -4.904   0.390   0.000  1.00  0.00     0.303 C 
ATOM     20  O   UNL     1      -5.195  -1.082   0.000  1.00  0.00    -0.252 OA
BRANCH  19  21
ATOM     21  O   UNL     1      -6.033   1.377   0.000  1.00  0.00    -0.481 OA
ATOM     22  H   UNL     1       0.000   0.000   0.000  1.00  0.00     0.296 HD
ENDBRANCH  19  21
ENDBRANCH  18  19
ENDBRANCH   1  18
TORSDOF 6
