REMARK SMILES COc1cc2c(=O)c(-c3ccc4c(c3)OCO4)coc2cc1O
REMARK SMILES IDX 3 1 4 2 5 3 20 4 21 5 22 6 19 7 18 8 8 9 6 10 7 11 2 12 1 13
REMARK SMILES IDX 23 14 9 16 10 17 14 18 11 19 13 20 12 21 15 22 17 23 16 24
REMARK H PARENT 23 15
ROOT
ATOM      1  C   UNL     1       4.557  -0.550   0.000  1.00  0.00     0.161 A 
ATOM      2  C   UNL     1       3.132  -1.019   0.000  1.00  0.00     0.066 A 
ATOM      3  C   UNL     1       2.014  -0.020   0.000  1.00  0.00     0.069 A 
ATOM      4  C   UNL     1       2.320   1.449   0.000  1.00  0.00     0.141 A 
ATOM      5  C   UNL     1       3.744   1.918   0.000  1.00  0.00     0.098 A 
ATOM      6  C   UNL     1       4.863   0.919   0.000  1.00  0.00     0.161 A 
ATOM      7  O   UNL     1       1.201   2.448   0.000  1.00  0.00    -0.463 OA
ATOM      8  C   UNL     1      -0.224   1.979   0.000  1.00  0.00     0.208 A 
ATOM      9  C   UNL     1      -0.530   0.510   0.000  1.00  0.00     0.065 A 
ATOM     10  C   UNL     1       0.589  -0.489   0.000  1.00  0.00     0.200 A 
ATOM     11  O   UNL     1       0.283  -1.958   0.000  1.00  0.00    -0.288 OA
ENDROOT
BRANCH   1  12
ATOM     12  O   UNL     1       5.676  -1.549   0.000  1.00  0.00    -0.493 OA
ATOM     13  C   UNL     1       5.370  -3.017   0.000  1.00  0.00     0.278 C 
ENDBRANCH   1  12
BRANCH   6  14
ATOM     14  O   UNL     1       6.288   1.388   0.000  1.00  0.00    -0.504 OA
ATOM     15  H   UNL     1       0.000   0.000   0.000  1.00  0.00     0.293 HD
ENDBRANCH   6  14
BRANCH   9  16
ATOM     16  C   UNL     1      -1.955   0.041   0.000  1.00  0.00    -0.007 A 
ATOM     17  C   UNL     1      -2.260  -1.428   0.000  1.00  0.00     0.013 A 
ATOM     18  C   UNL     1      -3.073   1.040   0.000  1.00  0.00     0.059 A 
ATOM     19  C   UNL     1      -3.685  -1.897   0.000  1.00  0.00     0.051 A 
ATOM     20  C   UNL     1      -4.498   0.571   0.000  1.00  0.00     0.166 A 
ATOM     21  C   UNL     1      -4.804  -0.898   0.000  1.00  0.00     0.165 A 
ATOM     22  O   UNL     1      -5.800   1.315   0.000  1.00  0.00    -0.454 OA
ATOM     23  O   UNL     1      -6.295  -1.060   0.000  1.00  0.00    -0.454 OA
ATOM     24  C   UNL     1      -6.911   0.307   0.000  1.00  0.00     0.468 C 
ENDBRANCH   9  16
TORSDOF 3
