REMARK SMILES C=C(C)[C@@H]1CC[C@]2(C)CC[C@]3(C)[C@H](CC[C@@H]4[C@@]5(C)CCC(OC(C)=O)C(C)(C)[C@@H]5CC[C@]43C)[C@@H]12
REMARK SMILES IDX 4 1 5 2 6 3 7 4 8 5 9 6 10 7 11 8 12 9 13 10 14 11 15 12
REMARK SMILES IDX 16 13 17 14 18 15 19 16 20 17 21 18 26 19 27 20 28 21 29 22
REMARK SMILES IDX 30 23 31 24 32 25 33 26 34 27 2 28 1 29 3 30 22 31 23 32
REMARK SMILES IDX 24 33 25 34
REMARK H PARENT
ROOT
ATOM      1  C   UNL     1       5.081  -1.324   0.000  1.00  0.00     0.018 C 
ATOM      2  C   UNL     1       6.459  -0.731   0.000  1.00  0.00     0.009 C 
ATOM      3  C   UNL     1       6.320   0.763   0.000  1.00  0.00     0.008 C 
ATOM      4  C   UNL     1       4.856   1.092   0.000  1.00  0.00    -0.029 C 
ATOM      5  C   UNL     1       5.753   2.295   0.000  1.00  0.00     0.011 C 
ATOM      6  C   UNL     1       4.122   2.400   0.000  1.00  0.00     0.007 C 
ATOM      7  C   UNL     1       2.622   2.418   0.000  1.00  0.00     0.008 C 
ATOM      8  C   UNL     1       1.857   1.128   0.000  1.00  0.00    -0.024 C 
ATOM      9  C   UNL     1       1.122   2.436   0.000  1.00  0.00     0.012 C 
ATOM     10  C   UNL     1       2.591  -0.180   0.000  1.00  0.00    -0.000 C 
ATOM     11  C   UNL     1       1.825  -1.470   0.000  1.00  0.00     0.005 C 
ATOM     12  C   UNL     1       0.326  -1.452   0.000  1.00  0.00     0.005 C 
ATOM     13  C   UNL     1      -0.409  -0.144   0.000  1.00  0.00     0.002 C 
ATOM     14  C   UNL     1      -1.909  -0.126   0.000  1.00  0.00    -0.026 C 
ATOM     15  C   UNL     1      -1.174  -1.434   0.000  1.00  0.00     0.012 C 
ATOM     16  C   UNL     1      -2.674  -1.415   0.000  1.00  0.00     0.011 C 
ATOM     17  C   UNL     1      -4.174  -1.397   0.000  1.00  0.00     0.046 C 
ATOM     18  C   UNL     1      -4.909  -0.090   0.000  1.00  0.00     0.182 C 
ATOM     19  C   UNL     1      -4.143   1.200   0.000  1.00  0.00     0.005 C 
ATOM     20  C   UNL     1      -3.865   2.674   0.000  1.00  0.00     0.015 C 
ATOM     21  C   UNL     1      -5.546   1.730   0.000  1.00  0.00     0.015 C 
ATOM     22  C   UNL     1      -2.643   1.182   0.000  1.00  0.00     0.005 C 
ATOM     23  C   UNL     1      -1.877   2.472   0.000  1.00  0.00     0.005 C 
ATOM     24  C   UNL     1      -0.378   2.454   0.000  1.00  0.00     0.008 C 
ATOM     25  C   UNL     1       0.357   1.146   0.000  1.00  0.00    -0.024 C 
ATOM     26  C   UNL     1       1.091  -0.162   0.000  1.00  0.00     0.012 C 
ATOM     27  C   UNL     1       4.091  -0.198   0.000  1.00  0.00     0.006 C 
ENDROOT
BRANCH   1  28
ATOM     28  C   UNL     1       4.752  -2.788   0.000  1.00  0.00    -0.077 C 
ATOM     29  C   UNL     1       3.320  -3.234   0.000  1.00  0.00     0.008 C 
ATOM     30  C   UNL     1       5.854  -3.805   0.000  1.00  0.00     0.039 C 
ENDBRANCH   1  28
BRANCH  18  31
ATOM     31  O   UNL     1      -6.408  -0.071   0.000  1.00  0.00    -0.462 OA
BRANCH  31  32
ATOM     32  C   UNL     1      -7.174  -1.361   0.000  1.00  0.00     0.302 C 
ATOM     33  C   UNL     1      -8.674  -1.343   0.000  1.00  0.00     0.139 C 
ATOM     34  O   UNL     1      -6.440  -2.669   0.000  1.00  0.00    -0.253 OA
ENDBRANCH  31  32
ENDBRANCH  18  31
TORSDOF 3
