REMARK SMILES CC(C)(O)[C@@H]1Cc2cc3ccc(=O)oc3cc2O1
REMARK SMILES IDX 1 1 2 2 3 3 4 4 5 6 6 7 18 8 7 9 17 10 8 11 16 12 9 13 15 14
REMARK SMILES IDX 10 15 14 16 11 17 12 18 13 19
REMARK H PARENT 4 5
ROOT
ATOM      1  C   UNL     1      -4.328  -1.613   0.000  1.00  0.00     0.046 C 
ATOM      2  C   UNL     1      -4.395  -0.115   0.000  1.00  0.00     0.096 C 
ATOM      3  C   UNL     1      -4.463   1.384   0.000  1.00  0.00     0.046 C 
ENDROOT
BRANCH   2   4
ATOM      4  O   UNL     1      -5.894  -0.182   0.000  1.00  0.00    -0.387 OA
ATOM      5  H   UNL     1       0.000   0.000   0.000  1.00  0.00     0.211 HD
ENDBRANCH   2   4
BRANCH   2   6
ATOM      6  C   UNL     1      -2.897  -0.047   0.000  1.00  0.00     0.209 C 
ATOM      7  C   UNL     1      -2.071   1.205   0.000  1.00  0.00     0.087 C 
ATOM      8  O   UNL     1      -1.962  -1.220   0.000  1.00  0.00    -0.487 OA
ATOM      9  C   UNL     1      -0.625   0.806   0.000  1.00  0.00    -0.001 A 
ATOM     10  C   UNL     1      -0.557  -0.692   0.000  1.00  0.00     0.126 A 
ATOM     11  C   UNL     1       0.639   1.614   0.000  1.00  0.00     0.019 A 
ATOM     12  C   UNL     1       0.774  -1.383   0.000  1.00  0.00     0.094 A 
ATOM     13  C   UNL     1       1.971   0.923   0.000  1.00  0.00     0.018 A 
ATOM     14  C   UNL     1       2.038  -0.576   0.000  1.00  0.00     0.142 A 
ATOM     15  C   UNL     1       3.235   1.731   0.000  1.00  0.00     0.019 A 
ATOM     16  O   UNL     1       3.370  -1.266   0.000  1.00  0.00    -0.423 OA
ATOM     17  C   UNL     1       4.566   1.040   0.000  1.00  0.00     0.094 A 
ATOM     18  C   UNL     1       4.634  -0.459   0.000  1.00  0.00     0.336 A 
ATOM     19  O   UNL     1       5.965  -1.149   0.000  1.00  0.00    -0.246 OA
ENDBRANCH   2   6
TORSDOF 2
