REMARK SMILES CC(=O)OO[C@@]12C[C@@]34OC1(O)[C@]1(COC(=O)C[C@H]1C(C)(C)[C@@H]2OC(C)=O)[C@H]3CC[C@@]1(C)[C@H](c2ccoc2)OC(=O)C[C@]14O
REMARK SMILES IDX 6 1 7 2 8 3 9 4 10 5 12 6 13 7 14 8 15 9 16 10 17 11 18 12
REMARK SMILES IDX 19 13 20 14 21 15 22 16 27 17 28 18 29 19 30 20 31 21 32 22
REMARK SMILES IDX 38 23 39 24 40 25 41 26 42 27 5 28 4 29 2 30 1 31 3 32 11 33
REMARK SMILES IDX 23 35 24 36 25 37 26 38 43 39 33 41 37 42 34 43 36 44 35 45
REMARK H PARENT 11 34 43 40
ROOT
ATOM      1  C   UNL     1      -1.570  -0.446   0.000  1.00  0.00     0.209 C 
ATOM      2  C   UNL     1      -0.569  -1.564   0.000  1.00  0.00     0.089 C 
ATOM      3  C   UNL     1       0.803  -0.958   0.000  1.00  0.00     0.109 C 
ATOM      4  O   UNL     1       0.651   0.534   0.000  1.00  0.00    -0.336 OA
ATOM      5  C   UNL     1      -0.816   0.851   0.000  1.00  0.00     0.213 C 
ATOM      6  C   UNL     1      -1.562   2.152   0.000  1.00  0.00     0.071 C 
ATOM      7  C   UNL     1      -0.808   3.449   0.000  1.00  0.00     0.246 C 
ATOM      8  O   UNL     1      -1.554   4.750   0.000  1.00  0.00    -0.465 OA
ATOM      9  C   UNL     1      -3.054   4.755   0.000  1.00  0.00     0.306 C 
ATOM     10  O   UNL     1      -3.800   6.056   0.000  1.00  0.00    -0.252 OA
ATOM     11  C   UNL     1      -3.808   3.458   0.000  1.00  0.00     0.128 C 
ATOM     12  C   UNL     1      -3.062   2.156   0.000  1.00  0.00     0.025 C 
ATOM     13  C   UNL     1      -3.816   0.860   0.000  1.00  0.00     0.009 C 
ATOM     14  C   UNL     1      -4.968  -0.101   0.000  1.00  0.00     0.015 C 
ATOM     15  C   UNL     1      -4.962   1.827   0.000  1.00  0.00     0.015 C 
ATOM     16  C   UNL     1      -3.070  -0.442   0.000  1.00  0.00     0.224 C 
ATOM     17  C   UNL     1      -0.125   1.720   0.000  1.00  0.00     0.040 C 
ATOM     18  C   UNL     1       1.293   1.593   0.000  1.00  0.00     0.008 C 
ATOM     19  C   UNL     1       2.766   1.310   0.000  1.00  0.00     0.014 C 
ATOM     20  C   UNL     1       3.258  -0.107   0.000  1.00  0.00     0.041 C 
ATOM     21  C   UNL     1       4.239   1.027   0.000  1.00  0.00     0.019 C 
ATOM     22  C   UNL     1       4.731  -0.390   0.000  1.00  0.00     0.219 C 
ATOM     23  O   UNL     1       5.222  -1.807   0.000  1.00  0.00    -0.457 OA
ATOM     24  C   UNL     1       4.240  -2.942   0.000  1.00  0.00     0.309 C 
ATOM     25  O   UNL     1       4.732  -4.359   0.000  1.00  0.00    -0.252 OA
ATOM     26  C   UNL     1       2.767  -2.658   0.000  1.00  0.00     0.161 C 
ATOM     27  C   UNL     1       2.276  -1.241   0.000  1.00  0.00     0.114 C 
ENDROOT
BRANCH   1  28
ATOM     28  O   UNL     1      -2.184  -1.815   0.000  1.00  0.00    -0.169 OA
BRANCH  28  29
ATOM     29  O   UNL     1      -1.306  -3.031   0.000  1.00  0.00    -0.298 OA
BRANCH  29  30
ATOM     30  C   UNL     1      -1.920  -4.399   0.000  1.00  0.00     0.339 C 
ATOM     31  C   UNL     1      -1.042  -5.615   0.000  1.00  0.00     0.142 C 
ATOM     32  O   UNL     1      -3.412  -4.552   0.000  1.00  0.00    -0.249 OA
ENDBRANCH  29  30
ENDBRANCH  28  29
ENDBRANCH   1  28
BRANCH   5  33
ATOM     33  O   UNL     1      -2.308   0.698   0.000  1.00  0.00    -0.362 OA
ATOM     34  H   UNL     1       0.000   0.000   0.000  1.00  0.00     0.214 HD
ENDBRANCH   5  33
BRANCH  16  35
ATOM     35  O   UNL     1      -3.824  -1.738   0.000  1.00  0.00    -0.458 OA
BRANCH  35  36
ATOM     36  C   UNL     1      -5.324  -1.734   0.000  1.00  0.00     0.303 C 
ATOM     37  C   UNL     1      -6.077  -3.031   0.000  1.00  0.00     0.139 C 
ATOM     38  O   UNL     1      -6.070  -0.432   0.000  1.00  0.00    -0.253 OA
ENDBRANCH  35  36
ENDBRANCH  16  35
BRANCH  27  39
ATOM     39  O   UNL     1       1.294  -2.375   0.000  1.00  0.00    -0.386 OA
ATOM     40  H   UNL     1       0.000   0.000   0.000  1.00  0.00     0.211 HD
ENDBRANCH  27  39
BRANCH  22  41
ATOM     41  C   UNL     1       5.712   0.744   0.000  1.00  0.00     0.031 A 
ATOM     42  C   UNL     1       5.372   2.205   0.000  1.00  0.00     0.202 A 
ATOM     43  C   UNL     1       7.207   0.616   0.000  1.00  0.00     0.049 A 
ATOM     44  O   UNL     1       6.656   2.980   0.000  1.00  0.00    -0.472 OA
ATOM     45  C   UNL     1       7.790   1.998   0.000  1.00  0.00     0.195 A 
ENDBRANCH  22  41
TORSDOF 8
