REMARK SMILES CC(=O)O[C@H]1C[C@H]2C(C)(C)CCC[C@]2(C)[C@H]2Cc3occc3[C@H](C)[C@H]12
REMARK SMILES IDX 4 1 2 2 1 3 3 4 5 5 6 6 25 7 7 8 23 9 16 10 8 11 14 12 22 13
REMARK SMILES IDX 17 14 11 15 13 16 18 17 21 18 12 19 19 20 20 21 24 22 9 23
REMARK SMILES IDX 10 24 15 25
REMARK H PARENT
ROOT
ATOM      1  O   UNL     1       0.277  -2.942   0.000  1.00  0.00    -0.462 OA
ENDROOT
BRANCH   1   2
ATOM      2  C   UNL     1       1.487  -3.828   0.000  1.00  0.00     0.302 C 
ATOM      3  C   UNL     1       1.324  -5.319   0.000  1.00  0.00     0.139 C 
ATOM      4  O   UNL     1       2.860  -3.223   0.000  1.00  0.00    -0.253 OA
ENDBRANCH   1   2
BRANCH   1   5
ATOM      5  C   UNL     1       0.440  -1.450   0.000  1.00  0.00     0.180 C 
ATOM      6  C   UNL     1       1.812  -0.846   0.000  1.00  0.00     0.050 C 
ATOM      7  C   UNL     1      -0.770  -0.564   0.000  1.00  0.00     0.041 C 
ATOM      8  C   UNL     1       1.975   0.645   0.000  1.00  0.00     0.004 C 
ATOM      9  C   UNL     1      -2.143  -1.168   0.000  1.00  0.00     0.027 C 
ATOM     10  C   UNL     1      -0.608   0.927   0.000  1.00  0.00     0.010 C 
ATOM     11  C   UNL     1       3.348   1.250   0.000  1.00  0.00    -0.032 C 
ATOM     12  C   UNL     1       0.765   1.532   0.000  1.00  0.00    -0.025 C 
ATOM     13  C   UNL     1      -3.353  -0.282   0.000  1.00  0.00    -0.003 A 
ATOM     14  C   UNL     1      -1.817   1.814   0.000  1.00  0.00     0.080 C 
ATOM     15  C   UNL     1       3.511   2.741   0.000  1.00  0.00     0.007 C 
ATOM     16  C   UNL     1       0.928   3.023   0.000  1.00  0.00     0.007 C 
ATOM     17  C   UNL     1      -3.190   1.209   0.000  1.00  0.00     0.107 A 
ATOM     18  C   UNL     1      -4.822  -0.588   0.000  1.00  0.00     0.046 A 
ATOM     19  C   UNL     1       2.301   3.628   0.000  1.00  0.00     0.001 C 
ATOM     20  O   UNL     1      -4.558   1.825   0.000  1.00  0.00    -0.469 OA
ATOM     21  C   UNL     1      -5.566   0.714   0.000  1.00  0.00     0.195 A 
ATOM     22  C   UNL     1      -2.306  -2.659   0.000  1.00  0.00     0.013 C 
ATOM     23  C   UNL     1       4.845   1.349   0.000  1.00  0.00     0.011 C 
ATOM     24  C   UNL     1       3.705  -0.207   0.000  1.00  0.00     0.011 C 
ATOM     25  C   UNL     1      -0.445   2.418   0.000  1.00  0.00     0.012 C 
ENDBRANCH   1   5
TORSDOF 2
