REMARK SMILES COc1cc(-c2cc(=O)c3c(O)c4c(cc3o2)OC(C)(C)C=C4)cc(OC)c1O
REMARK SMILES IDX 6 1 7 2 8 3 9 4 10 5 11 6 13 7 14 8 15 9 16 10 17 11 18 12
REMARK SMILES IDX 19 13 20 14 21 15 22 16 23 17 5 18 3 19 4 20 28 21 25 22
REMARK SMILES IDX 24 23 2 24 1 25 29 26 26 28 27 29 12 30
REMARK H PARENT 29 27 12 31
ROOT
ATOM      1  C   UNL     1      -1.297   0.450   0.000  1.00  0.00     0.138 A 
ATOM      2  C   UNL     1      -0.929   1.903   0.000  1.00  0.00     0.100 A 
ATOM      3  C   UNL     1       0.515   2.312   0.000  1.00  0.00     0.197 A 
ATOM      4  O   UNL     1       0.883   3.766   0.000  1.00  0.00    -0.289 OA
ATOM      5  C   UNL     1       1.590   1.266   0.000  1.00  0.00     0.107 A 
ATOM      6  C   UNL     1       3.033   1.674   0.000  1.00  0.00     0.141 A 
ATOM      7  C   UNL     1       4.108   0.628   0.000  1.00  0.00     0.059 A 
ATOM      8  C   UNL     1       3.740  -0.827   0.000  1.00  0.00     0.135 A 
ATOM      9  C   UNL     1       2.297  -1.235   0.000  1.00  0.00     0.095 A 
ATOM     10  C   UNL     1       1.222  -0.189   0.000  1.00  0.00     0.146 A 
ATOM     11  O   UNL     1      -0.222  -0.597   0.000  1.00  0.00    -0.456 OA
ATOM     12  O   UNL     1       4.815  -1.873   0.000  1.00  0.00    -0.483 OA
ATOM     13  C   UNL     1       6.259  -1.464   0.000  1.00  0.00     0.122 C 
ATOM     14  C   UNL     1       7.755  -1.575   0.000  1.00  0.00     0.061 C 
ATOM     15  C   UNL     1       6.410  -2.957   0.000  1.00  0.00     0.061 C 
ATOM     16  C   UNL     1       6.627  -0.010   0.000  1.00  0.00     0.021 C 
ATOM     17  C   UNL     1       5.552   1.036   0.000  1.00  0.00     0.015 C 
ENDROOT
BRANCH   1  18
ATOM     18  C   UNL     1      -2.740   0.041   0.000  1.00  0.00     0.025 A 
ATOM     19  C   UNL     1      -5.259   0.679   0.000  1.00  0.00     0.165 A 
ATOM     20  C   UNL     1      -3.816   1.087   0.000  1.00  0.00     0.062 A 
ATOM     21  C   UNL     1      -5.627  -0.775   0.000  1.00  0.00     0.200 A 
ATOM     22  C   UNL     1      -4.552  -1.821   0.000  1.00  0.00     0.165 A 
ATOM     23  C   UNL     1      -3.109  -1.413   0.000  1.00  0.00     0.062 A 
BRANCH  19  24
ATOM     24  O   UNL     1      -6.334   1.725   0.000  1.00  0.00    -0.493 OA
ATOM     25  C   UNL     1      -5.966   3.179   0.000  1.00  0.00     0.278 C 
ENDBRANCH  19  24
BRANCH  21  26
ATOM     26  O   UNL     1      -7.071  -1.183   0.000  1.00  0.00    -0.502 OA
ATOM     27  H   UNL     1       0.000   0.000   0.000  1.00  0.00     0.293 HD
ENDBRANCH  21  26
BRANCH  22  28
ATOM     28  O   UNL     1      -4.921  -3.275   0.000  1.00  0.00    -0.493 OA
ATOM     29  C   UNL     1      -6.364  -3.683   0.000  1.00  0.00     0.278 C 
ENDBRANCH  22  28
ENDBRANCH   1  18
BRANCH   6  30
ATOM     30  O   UNL     1       3.402   3.128   0.000  1.00  0.00    -0.506 OA
ATOM     31  H   UNL     1       0.000   0.000   0.000  1.00  0.00     0.293 HD
ENDBRANCH   6  30
TORSDOF 5
