REMARK SMILES C=CC[C@@]12C[C@H](OC)C(=O)C(OC)=C1O[C@H](c1cc(OC)c3c(c1)OCO3)[C@@H]2C
REMARK SMILES IDX 4 1 5 2 6 3 9 4 10 5 11 6 14 7 15 8 16 9 28 10 29 11 3 12
REMARK SMILES IDX 2 13 1 14 7 15 8 16 12 17 13 18 17 19 18 20 24 21 19 22
REMARK SMILES IDX 23 23 22 24 25 25 27 26 26 27 20 28 21 29
REMARK H PARENT
ROOT
ATOM      1  C   UNL     1       1.692   0.452   0.000  1.00  0.00     0.045 C 
ATOM      2  C   UNL     1       2.992   1.200   0.000  1.00  0.00     0.056 C 
ATOM      3  C   UNL     1       4.290   0.449   0.000  1.00  0.00     0.194 C 
ATOM      4  C   UNL     1       4.288  -1.051   0.000  1.00  0.00     0.229 C 
ATOM      5  O   UNL     1       5.587  -1.803   0.000  1.00  0.00    -0.288 OA
ATOM      6  C   UNL     1       2.988  -1.800   0.000  1.00  0.00     0.203 C 
ATOM      7  C   UNL     1       1.690  -1.048   0.000  1.00  0.00     0.150 C 
ATOM      8  O   UNL     1       0.263  -1.510   0.000  1.00  0.00    -0.485 OA
ATOM      9  C   UNL     1      -0.617  -0.295   0.000  1.00  0.00     0.207 C 
ATOM     10  C   UNL     1       0.266   0.917   0.000  1.00  0.00     0.046 C 
ATOM     11  C   UNL     1      -0.196   2.344   0.000  1.00  0.00     0.013 C 
ENDROOT
BRANCH   1  12
ATOM     12  C   UNL     1       1.537   1.944   0.000  1.00  0.00     0.042 C 
BRANCH  12  13
ATOM     13  C   UNL     1       2.752   2.824   0.000  1.00  0.00    -0.034 C 
ATOM     14  C   UNL     1       2.597   4.316   0.000  1.00  0.00     0.004 C 
ENDBRANCH  12  13
ENDBRANCH   1  12
BRANCH   3  15
ATOM     15  O   UNL     1       5.590   1.197   0.000  1.00  0.00    -0.373 OA
ATOM     16  C   UNL     1       6.888   0.445   0.000  1.00  0.00     0.196 C 
ENDBRANCH   3  15
BRANCH   6  17
ATOM     17  O   UNL     1       2.986  -3.300   0.000  1.00  0.00    -0.490 OA
ATOM     18  C   UNL     1       4.285  -4.051   0.000  1.00  0.00     0.278 C 
ENDBRANCH   6  17
BRANCH   9  19
ATOM     19  C   UNL     1      -2.117  -0.293   0.000  1.00  0.00     0.000 A 
ATOM     20  C   UNL     1      -2.865   1.006   0.000  1.00  0.00     0.058 A 
ATOM     21  C   UNL     1      -2.869  -1.592   0.000  1.00  0.00     0.058 A 
ATOM     22  C   UNL     1      -4.365   1.008   0.000  1.00  0.00     0.165 A 
ATOM     23  C   UNL     1      -4.369  -1.590   0.000  1.00  0.00     0.170 A 
ATOM     24  C   UNL     1      -5.117  -0.290   0.000  1.00  0.00     0.207 A 
ATOM     25  O   UNL     1      -5.374  -2.703   0.000  1.00  0.00    -0.453 OA
ATOM     26  O   UNL     1      -6.585  -0.600   0.000  1.00  0.00    -0.450 OA
ATOM     27  C   UNL     1      -6.743  -2.091   0.000  1.00  0.00     0.468 C 
BRANCH  22  28
ATOM     28  O   UNL     1      -5.114   2.308   0.000  1.00  0.00    -0.493 OA
ATOM     29  C   UNL     1      -4.362   3.607   0.000  1.00  0.00     0.278 C 
ENDBRANCH  22  28
ENDBRANCH   9  19
TORSDOF 6
