REMARK SMILES C=C1CC[C@@H](O)[C@]2(C)CC[C@@H](C(C)C)[C@H](O)[C@@H]12
REMARK SMILES IDX 1 1 2 2 3 3 4 4 5 5 7 6 8 7 9 8 10 9 11 10 15 11 17 12 16 13
REMARK SMILES IDX 6 15 12 17 13 18 14 19
REMARK H PARENT 16 14 6 16
ROOT
ATOM      1  C   UNL     1      -0.646  -3.246   0.000  1.00  0.00     0.008 C 
ATOM      2  C   UNL     1      -1.295  -1.894   0.000  1.00  0.00    -0.071 C 
ATOM      3  C   UNL     1      -2.791  -1.780   0.000  1.00  0.00     0.033 C 
ATOM      4  C   UNL     1      -3.440  -0.427   0.000  1.00  0.00     0.037 C 
ATOM      5  C   UNL     1      -2.593   0.811   0.000  1.00  0.00     0.121 C 
ATOM      6  C   UNL     1      -1.097   0.697   0.000  1.00  0.00     0.002 C 
ATOM      7  C   UNL     1      -1.746   2.049   0.000  1.00  0.00     0.015 C 
ATOM      8  C   UNL     1      -0.251   1.935   0.000  1.00  0.00     0.010 C 
ATOM      9  C   UNL     1       1.245   1.821   0.000  1.00  0.00     0.007 C 
ATOM     10  C   UNL     1       1.894   0.469   0.000  1.00  0.00     0.021 C 
ATOM     11  C   UNL     1       1.047  -0.770   0.000  1.00  0.00     0.125 C 
ATOM     12  C   UNL     1      -0.448  -0.655   0.000  1.00  0.00     0.052 C 
ENDROOT
BRANCH  11  13
ATOM     13  O   UNL     1       1.696  -2.122   0.000  1.00  0.00    -0.392 OA
ATOM     14  H   UNL     1       0.000   0.000   0.000  1.00  0.00     0.210 HD
ENDBRANCH  11  13
BRANCH   5  15
ATOM     15  O   UNL     1      -3.242   2.163   0.000  1.00  0.00    -0.393 OA
ATOM     16  H   UNL     1       0.000   0.000   0.000  1.00  0.00     0.210 HD
ENDBRANCH   5  15
BRANCH  10  17
ATOM     17  C   UNL     1       3.390   0.354   0.000  1.00  0.00    -0.012 C 
ATOM     18  C   UNL     1       4.039  -0.998   0.000  1.00  0.00     0.008 C 
ATOM     19  C   UNL     1       4.237   1.593   0.000  1.00  0.00     0.008 C 
ENDBRANCH  10  17
TORSDOF 3
