REMARK SMILES COc1ccc(-c2cc(=O)c3c(OC)cc(OC)c(OC)c3o2)cc1OC
REMARK SMILES IDX 7 1 8 2 9 3 10 4 11 5 12 6 15 7 16 8 19 9 22 10 23 11 6 12
REMARK SMILES IDX 3 13 4 14 25 15 5 16 24 17 2 18 1 19 26 20 27 21 20 22 21 23
REMARK SMILES IDX 13 24 14 25 17 26 18 27
REMARK H PARENT
ROOT
ATOM      1  C   UNL     1      -0.819  -0.287   0.000  1.00  0.00     0.138 A 
ATOM      2  C   UNL     1      -0.414  -1.732   0.000  1.00  0.00     0.100 A 
ATOM      3  C   UNL     1       1.039  -2.103   0.000  1.00  0.00     0.197 A 
ATOM      4  O   UNL     1       1.444  -3.547   0.000  1.00  0.00    -0.289 OA
ATOM      5  C   UNL     1       2.088  -1.030   0.000  1.00  0.00     0.111 A 
ATOM      6  C   UNL     1       3.541  -1.402   0.000  1.00  0.00     0.137 A 
ATOM      7  C   UNL     1       4.589  -0.329   0.000  1.00  0.00     0.097 A 
ATOM      8  C   UNL     1       4.184   1.115   0.000  1.00  0.00     0.168 A 
ATOM      9  C   UNL     1       2.731   1.487   0.000  1.00  0.00     0.205 A 
ATOM     10  C   UNL     1       1.683   0.414   0.000  1.00  0.00     0.188 A 
ATOM     11  O   UNL     1       0.230   0.785   0.000  1.00  0.00    -0.452 OA
ENDROOT
BRANCH   1  12
ATOM     12  C   UNL     1      -2.272   0.084   0.000  1.00  0.00     0.021 A 
ATOM     13  C   UNL     1      -5.179   0.828   0.000  1.00  0.00     0.160 A 
ATOM     14  C   UNL     1      -4.130   1.900   0.000  1.00  0.00     0.051 A 
ATOM     15  C   UNL     1      -4.774  -0.617   0.000  1.00  0.00     0.161 A 
ATOM     16  C   UNL     1      -2.677   1.529   0.000  1.00  0.00     0.016 A 
ATOM     17  C   UNL     1      -3.321  -0.988   0.000  1.00  0.00     0.062 A 
BRANCH  13  18
ATOM     18  O   UNL     1      -6.632   1.199   0.000  1.00  0.00    -0.493 OA
ATOM     19  C   UNL     1      -7.037   2.644   0.000  1.00  0.00     0.278 C 
ENDBRANCH  13  18
BRANCH  15  20
ATOM     20  O   UNL     1      -5.822  -1.689   0.000  1.00  0.00    -0.493 OA
ATOM     21  C   UNL     1      -5.418  -3.134   0.000  1.00  0.00     0.278 C 
ENDBRANCH  15  20
ENDBRANCH   1  12
BRANCH   9  22
ATOM     22  O   UNL     1       2.326   2.931   0.000  1.00  0.00    -0.490 OA
ATOM     23  C   UNL     1       3.375   4.004   0.000  1.00  0.00     0.278 C 
ENDBRANCH   9  22
BRANCH   6  24
ATOM     24  O   UNL     1       3.946  -2.846   0.000  1.00  0.00    -0.496 OA
ATOM     25  C   UNL     1       5.399  -3.218   0.000  1.00  0.00     0.278 C 
ENDBRANCH   6  24
BRANCH   8  26
ATOM     26  O   UNL     1       5.233   2.188   0.000  1.00  0.00    -0.493 OA
ATOM     27  C   UNL     1       6.686   1.816   0.000  1.00  0.00     0.278 C 
ENDBRANCH   8  26
TORSDOF 6
