REMARK SMILES COC(=O)[C@]12CCCC(C)(C)C1C=Cc1cc(C(C)C)c(OC)c(OC)c12
REMARK SMILES IDX 5 1 6 2 7 3 8 4 9 5 10 6 11 7 12 8 13 9 14 10 15 11 16 12
REMARK SMILES IDX 17 13 21 14 24 15 27 16 3 17 4 18 2 19 1 20 25 21 26 22
REMARK SMILES IDX 22 23 23 24 18 25 19 26 20 27
REMARK H PARENT
ROOT
ATOM      1  C   UNL     1       1.530   0.035   0.000  1.00  0.00     0.104 C 
ATOM      2  C   UNL     1       1.885  -1.422   0.000  1.00  0.00     0.024 C 
ATOM      3  C   UNL     1       3.325  -1.843   0.000  1.00  0.00     0.002 C 
ATOM      4  C   UNL     1       4.409  -0.807   0.000  1.00  0.00     0.007 C 
ATOM      5  C   UNL     1       4.054   0.650   0.000  1.00  0.00    -0.028 C 
ATOM      6  C   UNL     1       4.218   2.141   0.000  1.00  0.00     0.012 C 
ATOM      7  C   UNL     1       5.551   0.747   0.000  1.00  0.00     0.012 C 
ATOM      8  C   UNL     1       2.614   1.071   0.000  1.00  0.00     0.039 C 
ATOM      9  C   UNL     1       2.259   2.529   0.000  1.00  0.00    -0.021 C 
ATOM     10  C   UNL     1       0.819   2.950   0.000  1.00  0.00     0.004 C 
ATOM     11  C   UNL     1      -0.266   1.913   0.000  1.00  0.00    -0.017 A 
ATOM     12  C   UNL     1      -1.705   2.334   0.000  1.00  0.00     0.016 A 
ATOM     13  C   UNL     1      -2.790   1.298   0.000  1.00  0.00     0.001 A 
ATOM     14  C   UNL     1      -2.434  -0.160   0.000  1.00  0.00     0.164 A 
ATOM     15  C   UNL     1      -0.995  -0.581   0.000  1.00  0.00     0.165 A 
ATOM     16  C   UNL     1       0.090   0.456   0.000  1.00  0.00     0.023 A 
ENDROOT
BRANCH   1  17
ATOM     17  C   UNL     1       0.445  -1.002   0.000  1.00  0.00     0.317 C 
ATOM     18  O   UNL     1      -0.351  -0.970   0.000  1.00  0.00    -0.251 OA
BRANCH  17  19
ATOM     19  O   UNL     1       0.801  -2.459   0.000  1.00  0.00    -0.468 OA
ATOM     20  C   UNL     1      -0.284  -3.495   0.000  1.00  0.00     0.282 C 
ENDBRANCH  17  19
ENDBRANCH   1  17
BRANCH  15  21
ATOM     21  O   UNL     1      -0.639  -2.038   0.000  1.00  0.00    -0.493 OA
ATOM     22  C   UNL     1      -1.724  -3.074   0.000  1.00  0.00     0.278 C 
ENDBRANCH  15  21
BRANCH  14  23
ATOM     23  O   UNL     1      -3.519  -1.196   0.000  1.00  0.00    -0.493 OA
ATOM     24  C   UNL     1      -3.163  -2.654   0.000  1.00  0.00     0.278 C 
ENDBRANCH  14  23
BRANCH  13  25
ATOM     25  C   UNL     1      -4.229   1.718   0.000  1.00  0.00     0.017 C 
ATOM     26  C   UNL     1      -4.585   3.176   0.000  1.00  0.00     0.012 C 
ATOM     27  C   UNL     1      -5.314   0.682   0.000  1.00  0.00     0.012 C 
ENDBRANCH  13  25
TORSDOF 5
