REMARK SMILES COc1cc(OC)c2c(=O)cc(-c3ccc4c(c3)OCO4)oc2c1OC
REMARK SMILES IDX 3 1 4 2 5 3 8 4 9 5 10 6 11 7 12 8 22 9 23 10 24 11 2 12
REMARK SMILES IDX 1 13 25 14 26 15 6 16 7 17 13 18 14 19 18 20 15 21 17 22
REMARK SMILES IDX 16 23 19 24 21 25 20 26
REMARK H PARENT
ROOT
ATOM      1  C   UNL     1      -4.163   1.062   0.000  1.00  0.00     0.168 A 
ATOM      2  C   UNL     1      -4.563  -0.384   0.000  1.00  0.00     0.097 A 
ATOM      3  C   UNL     1      -3.511  -1.453   0.000  1.00  0.00     0.137 A 
ATOM      4  C   UNL     1      -2.059  -1.077   0.000  1.00  0.00     0.111 A 
ATOM      5  C   UNL     1      -1.007  -2.146   0.000  1.00  0.00     0.197 A 
ATOM      6  O   UNL     1      -1.407  -3.591   0.000  1.00  0.00    -0.289 OA
ATOM      7  C   UNL     1       0.445  -1.769   0.000  1.00  0.00     0.100 A 
ATOM      8  C   UNL     1       0.845  -0.324   0.000  1.00  0.00     0.138 A 
ATOM      9  O   UNL     1      -0.207   0.746   0.000  1.00  0.00    -0.452 OA
ATOM     10  C   UNL     1      -1.659   0.369   0.000  1.00  0.00     0.188 A 
ATOM     11  C   UNL     1      -2.711   1.438   0.000  1.00  0.00     0.205 A 
ENDROOT
BRANCH   1  12
ATOM     12  O   UNL     1      -5.215   2.131   0.000  1.00  0.00    -0.493 OA
ATOM     13  C   UNL     1      -4.815   3.577   0.000  1.00  0.00     0.278 C 
ENDBRANCH   1  12
BRANCH  11  14
ATOM     14  O   UNL     1      -2.311   2.884   0.000  1.00  0.00    -0.490 OA
ATOM     15  C   UNL     1      -0.859   3.261   0.000  1.00  0.00     0.278 C 
ENDBRANCH  11  14
BRANCH   3  16
ATOM     16  O   UNL     1      -3.911  -2.899   0.000  1.00  0.00    -0.496 OA
ATOM     17  C   UNL     1      -5.363  -3.275   0.000  1.00  0.00     0.278 C 
ENDBRANCH   3  16
BRANCH   8  18
ATOM     18  C   UNL     1       2.297   0.053   0.000  1.00  0.00     0.021 A 
ATOM     19  C   UNL     1       2.697   1.498   0.000  1.00  0.00     0.016 A 
ATOM     20  C   UNL     1       3.349  -1.016   0.000  1.00  0.00     0.062 A 
ATOM     21  C   UNL     1       4.149   1.875   0.000  1.00  0.00     0.051 A 
ATOM     22  C   UNL     1       4.801  -0.640   0.000  1.00  0.00     0.166 A 
ATOM     23  C   UNL     1       5.201   0.806   0.000  1.00  0.00     0.165 A 
ATOM     24  O   UNL     1       6.052  -1.467   0.000  1.00  0.00    -0.454 OA
ATOM     25  O   UNL     1       6.699   0.872   0.000  1.00  0.00    -0.454 OA
ATOM     26  C   UNL     1       7.226  -0.533   0.000  1.00  0.00     0.468 C 
ENDBRANCH   8  18
TORSDOF 4
