REMARK SMILES COC(=O)C[C@H]1C(C)(C)C(=O)C=C2O[C@](C)(O)[C@]34C(=CC[C@@]3(C)[C@H](c3ccoc3)OC(=O)[C@@H]4O)[C@@]21C
REMARK SMILES IDX 5 1 3 2 4 3 2 4 1 5 6 6 7 7 35 8 10 9 19 10 13 11 12 12
REMARK SMILES IDX 18 13 20 14 14 15 15 16 22 17 33 18 21 19 24 20 31 21 30 22
REMARK SMILES IDX 8 23 9 24 36 25 11 26 16 27 23 28 32 29 17 30 34 32 25 34
REMARK SMILES IDX 29 35 26 36 28 37 27 38
REMARK H PARENT 17 31 34 33
ROOT
ATOM      1  C   UNL     1       2.873  -1.702   0.000  1.00  0.00     0.128 C 
ENDROOT
BRANCH   1   2
ATOM      2  C   UNL     1       4.193  -2.415   0.000  1.00  0.00     0.305 C 
ATOM      3  O   UNL     1       5.471  -1.629   0.000  1.00  0.00    -0.252 OA
BRANCH   2   4
ATOM      4  O   UNL     1       4.235  -3.914   0.000  1.00  0.00    -0.469 OA
ATOM      5  C   UNL     1       5.555  -4.628   0.000  1.00  0.00     0.282 C 
ENDBRANCH   2   4
ENDBRANCH   1   2
BRANCH   1   6
ATOM      6  C   UNL     1       2.831  -0.202   0.000  1.00  0.00     0.031 C 
ATOM      7  C   UNL     1       4.109   0.584   0.000  1.00  0.00     0.032 C 
ATOM      8  C   UNL     1       1.512   0.511   0.000  1.00  0.00     0.051 C 
ATOM      9  C   UNL     1       4.067   2.083   0.000  1.00  0.00     0.164 C 
ATOM     10  C   UNL     1       0.234  -0.275   0.000  1.00  0.00    -0.044 C 
ATOM     11  C   UNL     1       1.470   2.010   0.000  1.00  0.00     0.114 C 
ATOM     12  C   UNL     1       2.747   2.796   0.000  1.00  0.00     0.090 C 
ATOM     13  C   UNL     1      -1.085   0.438   0.000  1.00  0.00     0.103 C 
ATOM     14  C   UNL     1      -0.036  -1.751   0.000  1.00  0.00    -0.025 C 
ATOM     15  O   UNL     1       0.170   2.024   0.000  1.00  0.00    -0.465 OA
ATOM     16  C   UNL     1      -0.512   1.605   0.000  1.00  0.00     0.218 C 
ATOM     17  C   UNL     1      -2.171  -0.597   0.000  1.00  0.00     0.031 C 
ATOM     18  C   UNL     1      -1.438   1.896   0.000  1.00  0.00     0.241 C 
ATOM     19  C   UNL     1      -1.523  -1.949   0.000  1.00  0.00     0.039 C 
ATOM     20  C   UNL     1      -3.610  -0.173   0.000  1.00  0.00     0.217 C 
ATOM     21  C   UNL     1      -2.877   2.319   0.000  1.00  0.00     0.336 C 
ATOM     22  O   UNL     1      -3.963   1.284   0.000  1.00  0.00    -0.455 OA
ATOM     23  C   UNL     1       4.661  -0.811   0.000  1.00  0.00     0.020 C 
ATOM     24  C   UNL     1       5.578   0.886   0.000  1.00  0.00     0.020 C 
ATOM     25  C   UNL     1       1.554  -0.989   0.000  1.00  0.00     0.025 C 
ATOM     26  O   UNL     1       5.344   2.869   0.000  1.00  0.00    -0.294 OA
ATOM     27  C   UNL     1      -2.597   1.635   0.000  1.00  0.00     0.091 C 
ATOM     28  C   UNL     1      -3.143  -1.739   0.000  1.00  0.00     0.017 C 
ATOM     29  O   UNL     1      -3.230   3.777   0.000  1.00  0.00    -0.249 OA
BRANCH  16  30
ATOM     30  O   UNL     1      -1.680   3.332   0.000  1.00  0.00    -0.356 OA
ATOM     31  H   UNL     1       0.000   0.000   0.000  1.00  0.00     0.215 HD
ENDBRANCH  16  30
BRANCH  18  32
ATOM     32  O   UNL     1      -0.635   3.163   0.000  1.00  0.00    -0.380 OA
ATOM     33  H   UNL     1       0.000   0.000   0.000  1.00  0.00     0.211 HD
ENDBRANCH  18  32
BRANCH  20  34
ATOM     34  C   UNL     1      -4.697  -1.208   0.000  1.00  0.00     0.031 A 
ATOM     35  C   UNL     1      -4.498  -2.695   0.000  1.00  0.00     0.202 A 
ATOM     36  C   UNL     1      -6.172  -0.937   0.000  1.00  0.00     0.049 A 
ATOM     37  O   UNL     1      -5.851  -3.343   0.000  1.00  0.00    -0.472 OA
ATOM     38  C   UNL     1      -6.885  -2.257   0.000  1.00  0.00     0.195 A 
ENDBRANCH  20  34
ENDBRANCH   1   6
TORSDOF 6
