REMARK SMILES COC(=O)C1=CO[C@@H](C)[C@H]2CN3CC[C@@]4(C(=O)Nc5ccccc54)[C@@H]3C[C@H]12
REMARK SMILES IDX 3 1 4 2 2 3 1 4 5 5 6 6 27 7 7 8 26 9 10 10 8 11 25 12 11 13
REMARK SMILES IDX 15 14 12 15 14 16 16 17 24 18 13 19 18 20 23 21 19 22 22 23
REMARK SMILES IDX 20 24 21 25 9 26 17 27
REMARK H PARENT 18 28
ROOT
ATOM      1  C   UNL     1      -3.045  -2.128   0.000  1.00  0.00     0.337 C 
ATOM      2  O   UNL     1      -1.653  -2.686   0.000  1.00  0.00    -0.246 OA
ENDROOT
BRANCH   1   3
ATOM      3  O   UNL     1      -4.224  -3.055   0.000  1.00  0.00    -0.466 OA
ATOM      4  C   UNL     1      -4.011  -4.540   0.000  1.00  0.00     0.282 C 
ENDBRANCH   1   3
BRANCH   1   5
ATOM      5  C   UNL     1      -3.258  -0.643   0.000  1.00  0.00     0.075 C 
ATOM      6  C   UNL     1      -4.651  -0.086   0.000  1.00  0.00     0.198 C 
ATOM      7  C   UNL     1      -2.079   0.284   0.000  1.00  0.00     0.039 C 
ATOM      8  O   UNL     1      -4.864   1.399   0.000  1.00  0.00    -0.497 OA
ATOM      9  C   UNL     1      -0.686  -0.274   0.000  1.00  0.00     0.030 C 
ATOM     10  C   UNL     1      -2.292   1.768   0.000  1.00  0.00     0.052 C 
ATOM     11  C   UNL     1      -3.684   2.326   0.000  1.00  0.00     0.174 C 
ATOM     12  C   UNL     1       0.493   0.653   0.000  1.00  0.00     0.077 C 
ATOM     13  C   UNL     1      -1.113   2.695   0.000  1.00  0.00     0.092 C 
ATOM     14  C   UNL     1       1.971   0.397   0.000  1.00  0.00     0.093 C 
ATOM     15  N   UNL     1       0.280   2.138   0.000  1.00  0.00    -0.298 NA
ATOM     16  C   UNL     1       2.671   1.723   0.000  1.00  0.00     0.039 C 
ATOM     17  C   UNL     1       1.270  -0.930   0.000  1.00  0.00     0.236 C 
ATOM     18  C   UNL     1       3.449   0.141   0.000  1.00  0.00    -0.007 A 
ATOM     19  C   UNL     1       1.626   2.799   0.000  1.00  0.00     0.086 C 
ATOM     20  N   UNL     1       2.316  -2.006   0.000  1.00  0.00    -0.325 N 
ATOM     21  C   UNL     1       4.628   1.068   0.000  1.00  0.00     0.007 A 
ATOM     22  C   UNL     1       3.662  -1.344   0.000  1.00  0.00     0.045 A 
ATOM     23  C   UNL     1       6.020   0.510   0.000  1.00  0.00     0.000 A 
ATOM     24  C   UNL     1       5.054  -1.902   0.000  1.00  0.00     0.026 A 
ATOM     25  C   UNL     1       6.234  -0.975   0.000  1.00  0.00     0.002 A 
ATOM     26  C   UNL     1      -3.898   3.811   0.000  1.00  0.00     0.053 C 
ATOM     27  O   UNL     1      -0.214  -1.143   0.000  1.00  0.00    -0.274 OA
ATOM     28  H   UNL     1       0.000   0.000   0.000  1.00  0.00     0.169 HD
ENDBRANCH   1   5
TORSDOF 2
