REMARK SMILES CCCCCCC[C@H](O)CC(=O)CCc1ccc(O)c(OC)c1
REMARK SMILES IDX 8 1 7 2 6 3 5 4 4 5 3 6 2 7 1 8 9 9 10 11 11 12 12 13 13 14
REMARK SMILES IDX 14 15 15 16 16 17 23 18 17 19 20 20 18 21 21 22 22 23 19 24
REMARK H PARENT 9 10 19 25
ROOT
ATOM      1  C   UNL     1      -2.508  -0.398   0.000  1.00  0.00     0.121 C 
ENDROOT
BRANCH   1   2
ATOM      2  C   UNL     1      -3.768   0.415   0.000  1.00  0.00     0.032 C 
BRANCH   2   3
ATOM      3  C   UNL     1      -5.103  -0.270   0.000  1.00  0.00     0.003 C 
BRANCH   3   4
ATOM      4  C   UNL     1      -6.363   0.543   0.000  1.00  0.00     0.000 C 
BRANCH   4   5
ATOM      5  C   UNL     1      -7.698  -0.142   0.000  1.00  0.00    -0.000 C 
BRANCH   5   6
ATOM      6  C   UNL     1      -8.958   0.671   0.000  1.00  0.00    -0.000 C 
BRANCH   6   7
ATOM      7  C   UNL     1     -10.293  -0.013   0.000  1.00  0.00    -0.003 C 
ATOM      8  C   UNL     1     -11.553   0.800   0.000  1.00  0.00     0.004 C 
ENDBRANCH   6   7
ENDBRANCH   5   6
ENDBRANCH   4   5
ENDBRANCH   3   4
ENDBRANCH   2   3
ENDBRANCH   1   2
BRANCH   1   9
ATOM      9  O   UNL     1      -2.582  -1.897   0.000  1.00  0.00    -0.393 OA
ATOM     10  H   UNL     1       0.000   0.000   0.000  1.00  0.00     0.210 HD
ENDBRANCH   1   9
BRANCH   1  11
ATOM     11  C   UNL     1      -1.173   0.286   0.000  1.00  0.00     0.107 C 
BRANCH  11  12
ATOM     12  C   UNL     1       0.087  -0.527   0.000  1.00  0.00     0.135 C 
ATOM     13  O   UNL     1       0.013  -2.025   0.000  1.00  0.00    -0.300 OA
BRANCH  12  14
ATOM     14  C   UNL     1       1.421   0.158   0.000  1.00  0.00     0.080 C 
BRANCH  14  15
ATOM     15  C   UNL     1       2.682  -0.655   0.000  1.00  0.00     0.043 C 
BRANCH  15  16
ATOM     16  C   UNL     1       4.016   0.030   0.000  1.00  0.00    -0.044 A 
ATOM     17  C   UNL     1       4.090   1.528   0.000  1.00  0.00     0.008 A 
ATOM     18  C   UNL     1       5.277  -0.783   0.000  1.00  0.00     0.054 A 
ATOM     19  C   UNL     1       5.425   2.213   0.000  1.00  0.00     0.050 A 
ATOM     20  C   UNL     1       6.611  -0.098   0.000  1.00  0.00     0.160 A 
ATOM     21  C   UNL     1       6.685   1.400   0.000  1.00  0.00     0.157 A 
BRANCH  20  22
ATOM     22  O   UNL     1       7.872  -0.911   0.000  1.00  0.00    -0.493 OA
ATOM     23  C   UNL     1       7.798  -2.410   0.000  1.00  0.00     0.278 C 
ENDBRANCH  20  22
BRANCH  21  24
ATOM     24  O   UNL     1       8.020   2.085   0.000  1.00  0.00    -0.504 OA
ATOM     25  H   UNL     1       0.000   0.000   0.000  1.00  0.00     0.293 HD
ENDBRANCH  21  24
ENDBRANCH  15  16
ENDBRANCH  14  15
ENDBRANCH  12  14
ENDBRANCH  11  12
ENDBRANCH   1  11
TORSDOF 14
