REMARK SMILES COc1ccc(C=CC=O)c(O)c1
REMARK SMILES IDX 7 1 6 2 3 3 4 4 13 5 5 6 11 7 2 8 1 9 12 10 8 12 9 13 10 14
REMARK H PARENT 12 11
ROOT
ATOM      1  C   UNL     1       1.774   1.087   0.000  1.00  0.00     0.015 C 
ENDROOT
BRANCH   1   2
ATOM      2  C   UNL     1       0.344   0.633   0.000  1.00  0.00     0.017 A 
ATOM      3  C   UNL     1      -2.516  -0.274   0.000  1.00  0.00     0.122 A 
ATOM      4  C   UNL     1      -2.194   1.191   0.000  1.00  0.00     0.047 A 
ATOM      5  C   UNL     1      -1.408  -1.285   0.000  1.00  0.00     0.093 A 
ATOM      6  C   UNL     1      -0.764   1.645   0.000  1.00  0.00     0.016 A 
ATOM      7  C   UNL     1       0.022  -0.832   0.000  1.00  0.00     0.126 A 
BRANCH   3   8
ATOM      8  O   UNL     1      -3.945  -0.728   0.000  1.00  0.00    -0.497 OA
ATOM      9  C   UNL     1      -5.053   0.284   0.000  1.00  0.00     0.278 C 
ENDBRANCH   3   8
BRANCH   7  10
ATOM     10  O   UNL     1       1.130  -1.843   0.000  1.00  0.00    -0.507 OA
ATOM     11  H   UNL     1       0.000   0.000   0.000  1.00  0.00     0.293 HD
ENDBRANCH   7  10
ENDBRANCH   1   2
BRANCH   1  12
ATOM     12  C   UNL     1       2.881   0.076   0.000  1.00  0.00     0.044 C 
BRANCH  12  13
ATOM     13  C   UNL     1       4.311   0.529   0.000  1.00  0.00     0.252 C 
ATOM     14  O   UNL     1       5.419  -0.482   0.000  1.00  0.00    -0.299 OA
ENDBRANCH  12  13
ENDBRANCH   1  12
TORSDOF 5
