REMARK SMILES COC(=O)[C@]1(O)C[C@@H](O)[C@@H](OC(=O)/C=C/c2ccc(O)c(O)c2)[C@H](O)C1
REMARK SMILES IDX 12 1 13 2 11 3 10 4 5 5 26 6 7 7 24 8 8 9 3 10 4 11 2 12
REMARK SMILES IDX 1 13 6 14 25 16 9 18 14 20 15 21 16 22 17 23 23 24 18 25
REMARK SMILES IDX 21 26 19 27 22 28 20 30
REMARK H PARENT 6 15 25 17 9 19 22 29 20 31
ROOT
ATOM      1  C   UNL     1       0.551  -0.049   0.000  1.00  0.00     0.331 C 
ATOM      2  O   UNL     1       0.012  -1.449   0.000  1.00  0.00    -0.247 OA
ENDROOT
BRANCH   1   3
ATOM      3  O   UNL     1      -0.392   1.117   0.000  1.00  0.00    -0.454 OA
BRANCH   3   4
ATOM      4  C   UNL     1      -1.874   0.884   0.000  1.00  0.00     0.234 C 
ATOM      5  C   UNL     1      -4.837   0.417   0.000  1.00  0.00     0.167 C 
ATOM      6  C   UNL     1      -4.299   1.817   0.000  1.00  0.00     0.083 C 
ATOM      7  C   UNL     1      -3.894  -0.749   0.000  1.00  0.00     0.083 C 
ATOM      8  C   UNL     1      -2.817   2.050   0.000  1.00  0.00     0.161 C 
ATOM      9  C   UNL     1      -2.412  -0.516   0.000  1.00  0.00     0.161 C 
BRANCH   5  10
ATOM     10  C   UNL     1      -5.822  -0.714   0.000  1.00  0.00     0.338 C 
ATOM     11  O   UNL     1      -5.335  -2.133   0.000  1.00  0.00    -0.249 OA
BRANCH  10  12
ATOM     12  O   UNL     1      -7.294  -0.427   0.000  1.00  0.00    -0.467 OA
ATOM     13  C   UNL     1      -8.279  -1.558   0.000  1.00  0.00     0.282 C 
ENDBRANCH  10  12
ENDBRANCH   5  10
BRANCH   5  14
ATOM     14  O   UNL     1      -6.122   1.191   0.000  1.00  0.00    -0.378 OA
ATOM     15  H   UNL     1       0.000   0.000   0.000  1.00  0.00     0.212 HD
ENDBRANCH   5  14
BRANCH   8  16
ATOM     16  O   UNL     1      -2.278   3.450   0.000  1.00  0.00    -0.389 OA
ATOM     17  H   UNL     1       0.000   0.000   0.000  1.00  0.00     0.211 HD
ENDBRANCH   8  16
BRANCH   9  18
ATOM     18  O   UNL     1      -1.469  -1.682   0.000  1.00  0.00    -0.389 OA
ATOM     19  H   UNL     1       0.000   0.000   0.000  1.00  0.00     0.211 HD
ENDBRANCH   9  18
ENDBRANCH   3   4
ENDBRANCH   1   3
BRANCH   1  20
ATOM     20  C   UNL     1       2.033   0.185   0.000  1.00  0.00     0.094 C 
BRANCH  20  21
ATOM     21  C   UNL     1       2.976  -0.982   0.000  1.00  0.00     0.016 C 
BRANCH  21  22
ATOM     22  C   UNL     1       4.457  -0.748   0.000  1.00  0.00    -0.021 A 
ATOM     23  C   UNL     1       5.401  -1.915   0.000  1.00  0.00     0.012 A 
ATOM     24  C   UNL     1       4.996   0.651   0.000  1.00  0.00     0.058 A 
ATOM     25  C   UNL     1       6.882  -1.681   0.000  1.00  0.00     0.051 A 
ATOM     26  C   UNL     1       6.478   0.885   0.000  1.00  0.00     0.157 A 
ATOM     27  C   UNL     1       7.421  -0.281   0.000  1.00  0.00     0.157 A 
BRANCH  26  28
ATOM     28  O   UNL     1       7.016   2.285   0.000  1.00  0.00    -0.504 OA
ATOM     29  H   UNL     1       0.000   0.000   0.000  1.00  0.00     0.293 HD
ENDBRANCH  26  28
BRANCH  27  30
ATOM     30  O   UNL     1       8.903  -0.048   0.000  1.00  0.00    -0.504 OA
ATOM     31  H   UNL     1       0.000   0.000   0.000  1.00  0.00     0.293 HD
ENDBRANCH  27  30
ENDBRANCH  21  22
ENDBRANCH  20  21
ENDBRANCH   1  20
TORSDOF 12
