REMARK SMILES C=C(CC(O)C(C)C1CCC2C3CC=C4C[C@@H](O)CC[C@]4(C)C3CC[C@]12C)C(C)C
REMARK SMILES IDX 4 1 3 2 2 3 1 4 28 5 29 6 30 7 5 8 6 10 7 11 8 12 9 13 26 14
REMARK SMILES IDX 10 15 25 16 11 17 24 18 12 19 23 20 13 21 21 22 14 23 20 24
REMARK SMILES IDX 15 25 19 26 16 27 17 28 27 29 22 30 18 31
REMARK H PARENT 5 9 18 32
ROOT
ATOM      1  C   UNL     1      -3.709  -0.291   0.000  1.00  0.00     0.121 C 
ENDROOT
BRANCH   1   2
ATOM      2  C   UNL     1      -5.135   0.174   0.000  1.00  0.00     0.062 C 
BRANCH   2   3
ATOM      3  C   UNL     1      -5.445   1.642   0.000  1.00  0.00    -0.072 C 
ATOM      4  C   UNL     1      -6.870   2.107   0.000  1.00  0.00     0.008 C 
BRANCH   3   5
ATOM      5  C   UNL     1      -4.328   2.644   0.000  1.00  0.00     0.008 C 
ATOM      6  C   UNL     1      -4.638   4.112   0.000  1.00  0.00     0.012 C 
ATOM      7  C   UNL     1      -2.902   2.178   0.000  1.00  0.00     0.012 C 
ENDBRANCH   3   5
ENDBRANCH   2   3
ENDBRANCH   1   2
BRANCH   1   8
ATOM      8  O   UNL     1      -2.593   0.711   0.000  1.00  0.00    -0.393 OA
ATOM      9  H   UNL     1       0.000   0.000   0.000  1.00  0.00     0.210 HD
ENDBRANCH   1   8
BRANCH   1  10
ATOM     10  C   UNL     1      -3.399  -1.759   0.000  1.00  0.00     0.019 C 
ATOM     11  C   UNL     1      -4.516  -2.761   0.000  1.00  0.00     0.011 C 
BRANCH  10  12
ATOM     12  C   UNL     1      -1.974  -2.225   0.000  1.00  0.00     0.001 C 
ATOM     13  C   UNL     1      -1.512  -3.652   0.000  1.00  0.00     0.005 C 
ATOM     14  C   UNL     1      -0.759  -1.345   0.000  1.00  0.00    -0.026 C 
ATOM     15  C   UNL     1      -0.012  -3.654   0.000  1.00  0.00     0.005 C 
ATOM     16  C   UNL     1      -0.600   0.147   0.000  1.00  0.00     0.007 C 
ATOM     17  C   UNL     1       0.454  -2.228   0.000  1.00  0.00    -0.001 C 
ATOM     18  C   UNL     1       0.772   0.755   0.000  1.00  0.00     0.005 C 
ATOM     19  C   UNL     1       1.825  -1.620   0.000  1.00  0.00     0.000 C 
ATOM     20  C   UNL     1       1.984  -0.129   0.000  1.00  0.00     0.003 C 
ATOM     21  C   UNL     1       3.037  -2.504   0.000  1.00  0.00     0.031 C 
ATOM     22  C   UNL     1       3.355   0.479   0.000  1.00  0.00    -0.008 C 
ATOM     23  C   UNL     1       4.408  -1.896   0.000  1.00  0.00    -0.027 C 
ATOM     24  C   UNL     1       3.514   1.971   0.000  1.00  0.00     0.014 C 
ATOM     25  C   UNL     1       4.567  -0.404   0.000  1.00  0.00    -0.065 C 
ATOM     26  C   UNL     1       4.885   2.579   0.000  1.00  0.00     0.033 C 
ATOM     27  C   UNL     1       5.939   0.204   0.000  1.00  0.00     0.063 C 
ATOM     28  C   UNL     1       6.098   1.695   0.000  1.00  0.00     0.118 C 
ATOM     29  C   UNL     1      -2.057  -0.593   0.000  1.00  0.00     0.012 C 
ATOM     30  C   UNL     1       2.143   1.363   0.000  1.00  0.00     0.016 C 
BRANCH  28  31
ATOM     31  O   UNL     1       7.469   2.303   0.000  1.00  0.00    -0.393 OA
ATOM     32  H   UNL     1       0.000   0.000   0.000  1.00  0.00     0.210 HD
ENDBRANCH  28  31
ENDBRANCH  10  12
ENDBRANCH   1  10
TORSDOF 7
