REMARK SMILES O=c1cc(-c2ccc(O)c(O)c2)oc2c([C@@H]3O[C@H](CO)[C@@H](O)[C@H](O)[C@H]3O)c(O)c([C@@H]3OC[C@H](O)[C@H](O)[C@H]3O)c(O)c12
REMARK SMILES IDX 1 1 2 2 3 3 4 4 13 5 14 6 15 7 27 8 29 9 39 10 41 11 5 12
REMARK SMILES IDX 6 13 12 14 7 15 10 16 8 17 11 18 9 20 40 22 30 24 31 25
REMARK SMILES IDX 37 26 32 27 35 28 33 29 38 30 36 32 34 34 16 36 17 37 25 38
REMARK SMILES IDX 18 39 23 40 21 41 26 42 19 44 20 45 24 47 22 49 28 51
REMARK H PARENT 11 19 9 21 40 23 38 31 36 33 34 35 26 43 20 46 24 48 22 50
REMARK H PARENT 28 52
ROOT
ATOM      1  O   UNL     1      -0.305  -4.640   0.000  1.00  0.00    -0.289 OA
ATOM      2  C   UNL     1      -0.827  -3.234   0.000  1.00  0.00     0.197 A 
ATOM      3  C   UNL     1      -2.306  -2.983   0.000  1.00  0.00     0.100 A 
ATOM      4  C   UNL     1      -2.828  -1.577   0.000  1.00  0.00     0.138 A 
ATOM      5  O   UNL     1      -1.871  -0.422   0.000  1.00  0.00    -0.455 OA
ATOM      6  C   UNL     1      -0.392  -0.673   0.000  1.00  0.00     0.152 A 
ATOM      7  C   UNL     1       0.564   0.483   0.000  1.00  0.00     0.069 A 
ATOM      8  C   UNL     1       2.043   0.232   0.000  1.00  0.00     0.134 A 
ATOM      9  C   UNL     1       2.565  -1.174   0.000  1.00  0.00     0.068 A 
ATOM     10  C   UNL     1       1.609  -2.330   0.000  1.00  0.00     0.140 A 
ATOM     11  C   UNL     1       0.130  -2.079   0.000  1.00  0.00     0.107 A 
ENDROOT
BRANCH   4  12
ATOM     12  C   UNL     1      -4.307  -1.326   0.000  1.00  0.00     0.021 A 
ATOM     13  C   UNL     1      -4.829   0.080   0.000  1.00  0.00     0.016 A 
ATOM     14  C   UNL     1      -5.264  -2.481   0.000  1.00  0.00     0.062 A 
ATOM     15  C   UNL     1      -6.308   0.331   0.000  1.00  0.00     0.051 A 
ATOM     16  C   UNL     1      -6.742  -2.230   0.000  1.00  0.00     0.158 A 
ATOM     17  C   UNL     1      -7.265  -0.824   0.000  1.00  0.00     0.157 A 
BRANCH  16  18
ATOM     18  O   UNL     1      -7.699  -3.385   0.000  1.00  0.00    -0.504 OA
ATOM     19  H   UNL     1       0.000   0.000   0.000  1.00  0.00     0.293 HD
ENDBRANCH  16  18
BRANCH  17  20
ATOM     20  O   UNL     1      -8.743  -0.573   0.000  1.00  0.00    -0.504 OA
ATOM     21  H   UNL     1       0.000   0.000   0.000  1.00  0.00     0.293 HD
ENDBRANCH  17  20
ENDBRANCH   4  12
BRANCH  10  22
ATOM     22  O   UNL     1       2.131  -3.736   0.000  1.00  0.00    -0.506 OA
ATOM     23  H   UNL     1       0.000   0.000   0.000  1.00  0.00     0.293 HD
ENDBRANCH  10  22
BRANCH   9  24
ATOM     24  C   UNL     1       4.044  -1.425   0.000  1.00  0.00     0.187 C 
ATOM     25  O   UNL     1       4.566  -2.832   0.000  1.00  0.00    -0.368 OA
ATOM     26  C   UNL     1       5.001  -0.270   0.000  1.00  0.00     0.179 C 
ATOM     27  C   UNL     1       6.045  -3.083   0.000  1.00  0.00     0.195 C 
ATOM     28  C   UNL     1       6.480  -0.521   0.000  1.00  0.00     0.177 C 
ATOM     29  C   UNL     1       7.002  -1.927   0.000  1.00  0.00     0.171 C 
BRANCH  26  30
ATOM     30  O   UNL     1       4.479   1.136   0.000  1.00  0.00    -0.387 OA
ATOM     31  H   UNL     1       0.000   0.000   0.000  1.00  0.00     0.211 HD
ENDBRANCH  26  30
BRANCH  28  32
ATOM     32  O   UNL     1       7.436   0.634   0.000  1.00  0.00    -0.387 OA
ATOM     33  H   UNL     1       0.000   0.000   0.000  1.00  0.00     0.211 HD
ENDBRANCH  28  32
BRANCH  29  34
ATOM     34  O   UNL     1       8.481  -2.178   0.000  1.00  0.00    -0.388 OA
ATOM     35  H   UNL     1       0.000   0.000   0.000  1.00  0.00     0.211 HD
ENDBRANCH  29  34
ENDBRANCH   9  24
BRANCH   7  36
ATOM     36  C   UNL     1       0.042   1.889   0.000  1.00  0.00     0.188 C 
ATOM     37  O   UNL     1       0.999   3.044   0.000  1.00  0.00    -0.362 OA
ATOM     38  C   UNL     1      -1.437   2.140   0.000  1.00  0.00     0.179 C 
ATOM     39  C   UNL     1       0.477   4.450   0.000  1.00  0.00     0.176 C 
ATOM     40  C   UNL     1      -1.959   3.546   0.000  1.00  0.00     0.177 C 
ATOM     41  C   UNL     1      -1.002   4.701   0.000  1.00  0.00     0.177 C 
BRANCH  38  42
ATOM     42  O   UNL     1      -2.393   0.985   0.000  1.00  0.00    -0.387 OA
ATOM     43  H   UNL     1       0.000   0.000   0.000  1.00  0.00     0.211 HD
ENDBRANCH  38  42
BRANCH  39  44
ATOM     44  C   UNL     1       1.434   5.606   0.000  1.00  0.00     0.191 C 
BRANCH  44  45
ATOM     45  O   UNL     1       2.913   5.355   0.000  1.00  0.00    -0.394 OA
ATOM     46  H   UNL     1       0.000   0.000   0.000  1.00  0.00     0.210 HD
ENDBRANCH  44  45
ENDBRANCH  39  44
BRANCH  40  47
ATOM     47  O   UNL     1      -3.438   3.797   0.000  1.00  0.00    -0.387 OA
ATOM     48  H   UNL     1       0.000   0.000   0.000  1.00  0.00     0.211 HD
ENDBRANCH  40  47
BRANCH  41  49
ATOM     49  O   UNL     1      -1.524   6.107   0.000  1.00  0.00    -0.388 OA
ATOM     50  H   UNL     1       0.000   0.000   0.000  1.00  0.00     0.211 HD
ENDBRANCH  41  49
ENDBRANCH   7  36
BRANCH   8  51
ATOM     51  O   UNL     1       3.000   1.387   0.000  1.00  0.00    -0.507 OA
ATOM     52  H   UNL     1       0.000   0.000   0.000  1.00  0.00     0.293 HD
ENDBRANCH   8  51
TORSDOF 15
