REMARK SMILES Cc1nc(C(=O)O)cc2c1[nH]c1ccccc12
REMARK SMILES IDX 5 1 6 2 4 3 2 4 3 5 10 6 9 7 11 8 8 9 17 10 12 11 16 12
REMARK SMILES IDX 13 13 15 14 14 15 1 16 7 18
REMARK H PARENT 11 17 7 19
ROOT
ATOM      1  C   UNL     1      -3.638   1.208   0.000  1.00  0.00     0.354 C 
ATOM      2  O   UNL     1      -4.985   0.549   0.000  1.00  0.00    -0.245 OA
ENDROOT
BRANCH   1   3
ATOM      3  C   UNL     1      -2.393   0.370   0.000  1.00  0.00     0.149 A 
ATOM      4  C   UNL     1      -1.252  -1.963   0.000  1.00  0.00     0.062 A 
ATOM      5  N   UNL     1      -2.496  -1.126   0.000  1.00  0.00    -0.244 NA
ATOM      6  C   UNL     1       0.096  -1.304   0.000  1.00  0.00     0.068 A 
ATOM      7  C   UNL     1       0.199   0.192   0.000  1.00  0.00     0.012 A 
ATOM      8  N   UNL     1       1.487  -1.865   0.000  1.00  0.00    -0.353 N 
ATOM      9  C   UNL     1      -1.046   1.030   0.000  1.00  0.00     0.047 A 
ATOM     10  C   UNL     1       1.654   0.557   0.000  1.00  0.00     0.007 A 
ATOM     11  C   UNL     1       2.450  -0.714   0.000  1.00  0.00     0.046 A 
ATOM     12  C   UNL     1       2.356   1.882   0.000  1.00  0.00     0.011 A 
ATOM     13  C   UNL     1       3.949  -0.660   0.000  1.00  0.00     0.027 A 
ATOM     14  C   UNL     1       3.856   1.936   0.000  1.00  0.00     0.001 A 
ATOM     15  C   UNL     1       4.652   0.665   0.000  1.00  0.00     0.002 A 
ATOM     16  C   UNL     1      -1.354  -3.460   0.000  1.00  0.00     0.069 C 
ATOM     17  H   UNL     1       0.000   0.000   0.000  1.00  0.00     0.167 HD
ENDBRANCH   1   3
BRANCH   1  18
ATOM     18  O   UNL     1      -3.535   2.704   0.000  1.00  0.00    -0.477 OA
ATOM     19  H   UNL     1       0.000   0.000   0.000  1.00  0.00     0.297 HD
ENDBRANCH   1  18
TORSDOF 2
