REMARK SMILES CC(=O)Oc1cc(CCC=C(C)CCC=C(C)CCC=C(C)CCC=C(C)C)c2c(c1)CC(=O)O2
REMARK SMILES IDX 15 1 14 2 13 3 11 4 12 5 10 6 9 7 8 8 7 9 5 10 6 11 31 12
REMARK SMILES IDX 30 13 29 14 32 15 35 16 33 17 34 18 4 19 2 20 1 21 3 22
REMARK SMILES IDX 16 23 17 24 18 25 19 26 20 27 21 28 22 29 23 30 24 31 25 32
REMARK SMILES IDX 26 33 27 34 28 35
REMARK H PARENT
ROOT
ATOM      1  C   UNL     1       1.590   0.328   0.000  1.00  0.00    -0.028 C 
ENDROOT
BRANCH   1   2
ATOM      2  C   UNL     1       0.975  -1.040   0.000  1.00  0.00     0.032 C 
BRANCH   2   3
ATOM      3  C   UNL     1      -0.517  -1.192   0.000  1.00  0.00     0.034 C 
BRANCH   3   4
ATOM      4  C   UNL     1      -1.131  -2.561   0.000  1.00  0.00    -0.077 C 
ATOM      5  C   UNL     1      -0.254  -3.777   0.000  1.00  0.00     0.039 C 
BRANCH   4   6
ATOM      6  C   UNL     1      -2.624  -2.713   0.000  1.00  0.00    -0.028 C 
BRANCH   6   7
ATOM      7  C   UNL     1      -3.502  -1.496   0.000  1.00  0.00     0.032 C 
BRANCH   7   8
ATOM      8  C   UNL     1      -4.994  -1.648   0.000  1.00  0.00     0.044 C 
BRANCH   8   9
ATOM      9  C   UNL     1      -5.872  -0.432   0.000  1.00  0.00    -0.001 A 
ATOM     10  C   UNL     1      -6.135   2.153   0.000  1.00  0.00     0.131 A 
ATOM     11  C   UNL     1      -5.257   0.936   0.000  1.00  0.00     0.054 A 
ATOM     12  C   UNL     1      -7.627   2.001   0.000  1.00  0.00     0.055 A 
ATOM     13  C   UNL     1      -8.242   0.632   0.000  1.00  0.00     0.010 A 
ATOM     14  C   UNL     1      -7.364  -0.584   0.000  1.00  0.00     0.138 A 
ATOM     15  C   UNL     1      -9.670   0.173   0.000  1.00  0.00     0.162 C 
ATOM     16  O   UNL     1      -8.249  -1.795   0.000  1.00  0.00    -0.426 OA
ATOM     17  C   UNL     1      -9.675  -1.327   0.000  1.00  0.00     0.315 C 
ATOM     18  O   UNL     1     -10.891  -2.205   0.000  1.00  0.00    -0.251 OA
BRANCH  10  19
ATOM     19  O   UNL     1      -5.521   3.521   0.000  1.00  0.00    -0.427 OA
BRANCH  19  20
ATOM     20  C   UNL     1      -4.028   3.673   0.000  1.00  0.00     0.308 C 
ATOM     21  C   UNL     1      -3.414   5.041   0.000  1.00  0.00     0.139 C 
ATOM     22  O   UNL     1      -3.150   2.457   0.000  1.00  0.00    -0.252 OA
ENDBRANCH  19  20
ENDBRANCH  10  19
ENDBRANCH   8   9
ENDBRANCH   7   8
ENDBRANCH   6   7
ENDBRANCH   4   6
ENDBRANCH   3   4
ENDBRANCH   2   3
ENDBRANCH   1   2
BRANCH   1  23
ATOM     23  C   UNL     1       3.082   0.480   0.000  1.00  0.00    -0.077 C 
ATOM     24  C   UNL     1       3.696   1.849   0.000  1.00  0.00     0.039 C 
BRANCH  23  25
ATOM     25  C   UNL     1       3.960  -0.736   0.000  1.00  0.00     0.034 C 
BRANCH  25  26
ATOM     26  C   UNL     1       5.452  -0.584   0.000  1.00  0.00     0.032 C 
BRANCH  26  27
ATOM     27  C   UNL     1       6.330  -1.800   0.000  1.00  0.00    -0.028 C 
BRANCH  27  28
ATOM     28  C   UNL     1       7.822  -1.649   0.000  1.00  0.00    -0.077 C 
ATOM     29  C   UNL     1       8.700  -2.865   0.000  1.00  0.00     0.039 C 
BRANCH  28  30
ATOM     30  C   UNL     1       8.437  -0.280   0.000  1.00  0.00     0.034 C 
BRANCH  30  31
ATOM     31  C   UNL     1       9.929  -0.128   0.000  1.00  0.00     0.032 C 
BRANCH  31  32
ATOM     32  C   UNL     1      10.543   1.240   0.000  1.00  0.00    -0.028 C 
BRANCH  32  33
ATOM     33  C   UNL     1      12.036   1.392   0.000  1.00  0.00    -0.080 C 
ATOM     34  C   UNL     1      12.650   2.761   0.000  1.00  0.00     0.039 C 
ATOM     35  C   UNL     1      12.914   0.176   0.000  1.00  0.00     0.039 C 
ENDBRANCH  32  33
ENDBRANCH  31  32
ENDBRANCH  30  31
ENDBRANCH  28  30
ENDBRANCH  27  28
ENDBRANCH  26  27
ENDBRANCH  25  26
ENDBRANCH  23  25
ENDBRANCH   1  23
TORSDOF 18
