REMARK SMILES O=C(O)C=Cc1ccc(O)cc1
REMARK SMILES IDX 4 1 2 2 1 3 3 4 5 6 6 7 7 8 12 9 8 10 11 11 9 12 10 13
REMARK H PARENT 3 5 10 14
ROOT
ATOM      1  C   UNL     1      -2.131   0.456   0.000  1.00  0.00     0.094 C 
ENDROOT
BRANCH   1   2
ATOM      2  C   UNL     1      -3.602   0.161   0.000  1.00  0.00     0.328 C 
ATOM      3  O   UNL     1      -4.082  -1.261   0.000  1.00  0.00    -0.247 OA
BRANCH   2   4
ATOM      4  O   UNL     1      -4.593   1.287   0.000  1.00  0.00    -0.478 OA
ATOM      5  H   UNL     1       0.000   0.000   0.000  1.00  0.00     0.297 HD
ENDBRANCH   2   4
ENDBRANCH   1   2
BRANCH   1   6
ATOM      6  C   UNL     1      -1.140  -0.670   0.000  1.00  0.00     0.015 C 
BRANCH   6   7
ATOM      7  C   UNL     1       0.330  -0.375   0.000  1.00  0.00    -0.025 A 
ATOM      8  C   UNL     1       0.810   1.046   0.000  1.00  0.00     0.012 A 
ATOM      9  C   UNL     1       1.321  -1.502   0.000  1.00  0.00     0.012 A 
ATOM     10  C   UNL     1       2.281   1.341   0.000  1.00  0.00     0.047 A 
ATOM     11  C   UNL     1       2.792  -1.206   0.000  1.00  0.00     0.047 A 
ATOM     12  C   UNL     1       3.272   0.215   0.000  1.00  0.00     0.115 A 
BRANCH  12  13
ATOM     13  O   UNL     1       4.742   0.510   0.000  1.00  0.00    -0.508 OA
ATOM     14  H   UNL     1       0.000   0.000   0.000  1.00  0.00     0.293 HD
ENDBRANCH  12  13
ENDBRANCH   6   7
ENDBRANCH   1   6
TORSDOF 5
