REMARK SMILES CC[C@H]1[C@@H](C[C@H]2CC=CC(=O)O2)C[C@H]2CC=C[C@@H]1O2
REMARK SMILES IDX 3 1 4 2 13 3 14 4 15 5 16 6 17 7 18 8 19 9 2 10 1 11 5 12
REMARK SMILES IDX 6 13 7 14 12 15 8 16 10 17 9 18 11 19
REMARK H PARENT
ROOT
ATOM      1  C   UNL     1       0.949   0.391   0.000  1.00  0.00     0.025 C 
ATOM      2  C   UNL     1       0.750  -1.096   0.000  1.00  0.00     0.001 C 
ATOM      3  C   UNL     1       1.939  -2.011   0.000  1.00  0.00     0.036 C 
ATOM      4  C   UNL     1       3.326  -1.440   0.000  1.00  0.00     0.123 C 
ATOM      5  C   UNL     1       4.713  -0.868   0.000  1.00  0.00     0.059 C 
ATOM      6  C   UNL     1       4.911   0.619   0.000  1.00  0.00    -0.026 C 
ATOM      7  C   UNL     1       3.723   1.534   0.000  1.00  0.00     0.000 C 
ATOM      8  C   UNL     1       2.336   0.963   0.000  1.00  0.00     0.144 C 
ATOM      9  O   UNL     1       2.137  -0.524   0.000  1.00  0.00    -0.370 OA
ENDROOT
BRANCH   1  10
ATOM     10  C   UNL     1      -0.239   1.306   0.000  1.00  0.00     0.003 C 
ATOM     11  C   UNL     1      -0.041   2.793   0.000  1.00  0.00     0.004 C 
ENDBRANCH   1  10
BRANCH   2  12
ATOM     12  C   UNL     1      -0.636  -1.667   0.000  1.00  0.00     0.049 C 
BRANCH  12  13
ATOM     13  C   UNL     1      -1.825  -0.752   0.000  1.00  0.00     0.181 C 
ATOM     14  C   UNL     1      -1.626   0.735   0.000  1.00  0.00     0.073 C 
ATOM     15  O   UNL     1      -3.212  -1.323   0.000  1.00  0.00    -0.459 OA
ATOM     16  C   UNL     1      -2.815   1.650   0.000  1.00  0.00    -0.016 C 
ATOM     17  C   UNL     1      -4.400  -0.408   0.000  1.00  0.00     0.330 C 
ATOM     18  C   UNL     1      -4.202   1.079   0.000  1.00  0.00     0.089 C 
ATOM     19  O   UNL     1      -5.787  -0.980   0.000  1.00  0.00    -0.247 OA
ENDBRANCH  12  13
ENDBRANCH   2  12
TORSDOF 3
