REMARK SMILES C=CC[C@]12C[C@@H](OC)[C@H](OC(C)=O)[C@](OC)([C@@H](c3cc(OC)c4c(c3)OCO4)[C@@H]1C)[C@H]2O
REMARK SMILES IDX 4 1 5 2 6 3 9 4 14 5 17 6 29 7 30 8 31 9 3 10 2 11 1 12
REMARK SMILES IDX 32 13 7 15 8 16 18 17 19 18 25 19 20 20 24 21 23 22 26 23
REMARK SMILES IDX 28 24 27 25 21 26 22 27 15 28 16 29 10 30 11 31 12 32 13 33
REMARK H PARENT 32 14
ROOT
ATOM      1  C   UNL     1       2.560   1.503   0.000  1.00  0.00     0.009 C 
ATOM      2  C   UNL     1       3.839   0.721   0.000  1.00  0.00     0.046 C 
ATOM      3  C   UNL     1       3.801  -0.779   0.000  1.00  0.00     0.162 C 
ATOM      4  C   UNL     1       2.483  -1.496   0.000  1.00  0.00     0.240 C 
ATOM      5  C   UNL     1       1.204  -0.713   0.000  1.00  0.00     0.140 C 
ATOM      6  C   UNL     1       0.229   0.427   0.000  1.00  0.00     0.062 C 
ATOM      7  C   UNL     1       1.012   1.706   0.000  1.00  0.00     0.006 C 
ATOM      8  C   UNL     1       0.437   3.092   0.000  1.00  0.00     0.009 C 
ATOM      9  C   UNL     1       1.242   0.787   0.000  1.00  0.00     0.158 C 
ENDROOT
BRANCH   1  10
ATOM     10  C   UNL     1       2.598   3.003   0.000  1.00  0.00     0.037 C 
BRANCH  10  11
ATOM     11  C   UNL     1       3.916   3.720   0.000  1.00  0.00    -0.034 C 
ATOM     12  C   UNL     1       3.954   5.219   0.000  1.00  0.00     0.004 C 
ENDBRANCH  10  11
ENDBRANCH   1  10
BRANCH   9  13
ATOM     13  O   UNL     1      -0.037   1.569   0.000  1.00  0.00    -0.389 OA
ATOM     14  H   UNL     1       0.000   0.000   0.000  1.00  0.00     0.211 HD
ENDBRANCH   9  13
BRANCH   3  15
ATOM     15  O   UNL     1       5.081  -1.562   0.000  1.00  0.00    -0.377 OA
ATOM     16  C   UNL     1       5.042  -3.061   0.000  1.00  0.00     0.195 C 
ENDBRANCH   3  15
BRANCH   6  17
ATOM     17  C   UNL     1      -1.266   0.308   0.000  1.00  0.00    -0.034 A 
ATOM     18  C   UNL     1      -2.117   1.544   0.000  1.00  0.00     0.054 A 
ATOM     19  C   UNL     1      -1.911  -1.046   0.000  1.00  0.00     0.055 A 
ATOM     20  C   UNL     1      -3.612   1.425   0.000  1.00  0.00     0.165 A 
ATOM     21  C   UNL     1      -3.406  -1.165   0.000  1.00  0.00     0.169 A 
ATOM     22  C   UNL     1      -4.257   0.071   0.000  1.00  0.00     0.207 A 
ATOM     23  O   UNL     1      -4.319  -2.356   0.000  1.00  0.00    -0.453 OA
ATOM     24  O   UNL     1      -5.695  -0.356   0.000  1.00  0.00    -0.450 OA
ATOM     25  C   UNL     1      -5.733  -1.856   0.000  1.00  0.00     0.468 C 
BRANCH  20  26
ATOM     26  O   UNL     1      -4.463   2.660   0.000  1.00  0.00    -0.493 OA
ATOM     27  C   UNL     1      -3.818   4.015   0.000  1.00  0.00     0.278 C 
ENDBRANCH  20  26
ENDBRANCH   6  17
BRANCH   5  28
ATOM     28  O   UNL     1      -0.114  -1.430   0.000  1.00  0.00    -0.371 OA
ATOM     29  C   UNL     1      -1.157  -1.102   0.000  1.00  0.00     0.196 C 
ENDBRANCH   5  28
BRANCH   4  30
ATOM     30  O   UNL     1       2.445  -2.995   0.000  1.00  0.00    -0.457 OA
BRANCH  30  31
ATOM     31  C   UNL     1       1.127  -3.712   0.000  1.00  0.00     0.303 C 
ATOM     32  C   UNL     1       1.089  -5.212   0.000  1.00  0.00     0.139 C 
ATOM     33  O   UNL     1      -0.152  -2.929   0.000  1.00  0.00    -0.253 OA
ENDBRANCH  30  31
ENDBRANCH   4  30
TORSDOF 9
