REMARK SMILES COc1ccc([C@@H]2CC(=O)c3c(O)cc(O[C@@H]4O[C@H](CO[C@@H]5O[C@@H](C)[C@H](O)[C@@H](O)[C@H]5O)[C@@H](O)[C@H](O)[C@H]4O)cc3O2)cc1O
REMARK SMILES IDX 17 1 18 2 19 3 32 4 34 5 36 6 16 7 15 8 7 9 8 10 40 11 9 12
REMARK SMILES IDX 39 13 11 14 38 15 12 16 14 17 10 18 6 19 3 20 4 21 42 22
REMARK SMILES IDX 5 23 41 24 2 25 1 26 43 27 13 29 37 31 20 33 21 34 22 35
REMARK SMILES IDX 23 36 30 37 24 38 28 39 26 40 25 41 31 42 29 44 27 46 35 48
REMARK SMILES IDX 33 50
REMARK H PARENT 43 28 13 30 37 32 31 43 29 45 27 47 35 49 33 51
ROOT
ATOM      1  C   UNL     1       1.849   3.483   0.000  1.00  0.00     0.339 C 
ATOM      2  O   UNL     1       2.606   2.188   0.000  1.00  0.00    -0.332 OA
ATOM      3  C   UNL     1       4.106   2.196   0.000  1.00  0.00     0.180 C 
ATOM      4  C   UNL     1       4.849   3.498   0.000  1.00  0.00     0.177 C 
ATOM      5  C   UNL     1       4.093   4.793   0.000  1.00  0.00     0.180 C 
ATOM      6  C   UNL     1       2.593   4.786   0.000  1.00  0.00     0.214 C 
ENDROOT
BRANCH   1   7
ATOM      7  O   UNL     1       0.349   3.476   0.000  1.00  0.00    -0.462 OA
BRANCH   7   8
ATOM      8  C   UNL     1      -0.395   2.173   0.000  1.00  0.00     0.130 A 
ATOM      9  C   UNL     1      -4.882  -0.447   0.000  1.00  0.00     0.211 C 
ATOM     10  C   UNL     1      -4.125  -1.742   0.000  1.00  0.00     0.131 C 
ATOM     11  O   UNL     1      -4.138   0.856   0.000  1.00  0.00    -0.484 OA
ATOM     12  C   UNL     1      -2.625  -1.735   0.000  1.00  0.00     0.174 C 
ATOM     13  C   UNL     1      -2.638   0.863   0.000  1.00  0.00     0.138 A 
ATOM     14  C   UNL     1      -1.882  -0.432   0.000  1.00  0.00     0.102 A 
ATOM     15  C   UNL     1      -1.895   2.166   0.000  1.00  0.00     0.094 A 
ATOM     16  C   UNL     1      -0.382  -0.425   0.000  1.00  0.00     0.133 A 
ATOM     17  C   UNL     1       0.362   0.878   0.000  1.00  0.00     0.093 A 
ATOM     18  O   UNL     1      -1.869  -3.030   0.000  1.00  0.00    -0.294 OA
BRANCH   9  19
ATOM     19  C   UNL     1      -6.381  -0.455   0.000  1.00  0.00    -0.003 A 
ATOM     20  C   UNL     1      -9.382  -0.469   0.000  1.00  0.00     0.160 A 
ATOM     21  C   UNL     1      -8.638   0.833   0.000  1.00  0.00     0.051 A 
ATOM     22  C   UNL     1      -8.625  -1.765   0.000  1.00  0.00     0.158 A 
ATOM     23  C   UNL     1      -7.138   0.841   0.000  1.00  0.00     0.011 A 
ATOM     24  C   UNL     1      -7.125  -1.757   0.000  1.00  0.00     0.057 A 
BRANCH  20  25
ATOM     25  O   UNL     1     -10.882  -0.477   0.000  1.00  0.00    -0.493 OA
ATOM     26  C   UNL     1     -11.638   0.819   0.000  1.00  0.00     0.278 C 
ENDBRANCH  20  25
BRANCH  22  27
ATOM     27  O   UNL     1      -9.369  -3.067   0.000  1.00  0.00    -0.504 OA
ATOM     28  H   UNL     1       0.000   0.000   0.000  1.00  0.00     0.293 HD
ENDBRANCH  22  27
ENDBRANCH   9  19
BRANCH  16  29
ATOM     29  O   UNL     1       0.375  -1.720   0.000  1.00  0.00    -0.507 OA
ATOM     30  H   UNL     1       0.000   0.000   0.000  1.00  0.00     0.293 HD
ENDBRANCH  16  29
ENDBRANCH   7   8
ENDBRANCH   1   7
BRANCH   6  31
ATOM     31  O   UNL     1       1.836   6.081   0.000  1.00  0.00    -0.384 OA
ATOM     32  H   UNL     1       0.000   0.000   0.000  1.00  0.00     0.211 HD
ENDBRANCH   6  31
BRANCH   3  33
ATOM     33  C   UNL     1       4.862   0.900   0.000  1.00  0.00     0.198 C 
BRANCH  33  34
ATOM     34  O   UNL     1       4.118  -0.403   0.000  1.00  0.00    -0.347 OA
BRANCH  34  35
ATOM     35  C   UNL     1       4.875  -1.698   0.000  1.00  0.00     0.281 C 
ATOM     36  O   UNL     1       4.131  -3.001   0.000  1.00  0.00    -0.344 OA
ATOM     37  C   UNL     1       6.375  -1.690   0.000  1.00  0.00     0.202 C 
ATOM     38  C   UNL     1       4.888  -4.296   0.000  1.00  0.00     0.150 C 
ATOM     39  C   UNL     1       7.131  -2.986   0.000  1.00  0.00     0.179 C 
ATOM     40  C   UNL     1       6.388  -4.288   0.000  1.00  0.00     0.174 C 
ATOM     41  C   UNL     1       4.144  -5.599   0.000  1.00  0.00     0.041 C 
BRANCH  37  42
ATOM     42  O   UNL     1       7.118  -0.388   0.000  1.00  0.00    -0.385 OA
ATOM     43  H   UNL     1       0.000   0.000   0.000  1.00  0.00     0.211 HD
ENDBRANCH  37  42
BRANCH  39  44
ATOM     44  O   UNL     1       8.631  -2.978   0.000  1.00  0.00    -0.387 OA
ATOM     45  H   UNL     1       0.000   0.000   0.000  1.00  0.00     0.211 HD
ENDBRANCH  39  44
BRANCH  40  46
ATOM     46  O   UNL     1       7.144  -5.584   0.000  1.00  0.00    -0.388 OA
ATOM     47  H   UNL     1       0.000   0.000   0.000  1.00  0.00     0.211 HD
ENDBRANCH  40  46
ENDBRANCH  34  35
ENDBRANCH  33  34
ENDBRANCH   3  33
BRANCH   5  48
ATOM     48  O   UNL     1       4.836   6.096   0.000  1.00  0.00    -0.387 OA
ATOM     49  H   UNL     1       0.000   0.000   0.000  1.00  0.00     0.211 HD
ENDBRANCH   5  48
BRANCH   4  50
ATOM     50  O   UNL     1       6.349   3.506   0.000  1.00  0.00    -0.387 OA
ATOM     51  H   UNL     1       0.000   0.000   0.000  1.00  0.00     0.211 HD
ENDBRANCH   4  50
TORSDOF 15
