REMARK SMILES C=C1CC[C@@H]2[C@](C)(CCC[C@]2(C)C(=O)O)[C@H]1CC[C@H](C)CCO
REMARK SMILES IDX 18 1 17 2 16 3 2 4 3 5 4 6 6 7 5 8 8 9 11 10 9 11 10 12 1 13
REMARK SMILES IDX 7 14 12 15 13 16 14 17 15 18 19 20 20 21 21 22 22 23 23 24
REMARK H PARENT 15 19 23 25
ROOT
ATOM      1  C   UNL     1      -3.058   1.083   0.000  1.00  0.00     0.004 C 
ENDROOT
BRANCH   1   2
ATOM      2  C   UNL     1      -1.851   0.192   0.000  1.00  0.00     0.009 C 
BRANCH   2   3
ATOM      3  C   UNL     1      -0.476   0.792   0.000  1.00  0.00     0.021 C 
ATOM      4  C   UNL     1      -0.308   2.283   0.000  1.00  0.00    -0.074 C 
ATOM      5  C   UNL     1       1.067   2.883   0.000  1.00  0.00     0.031 C 
ATOM      6  C   UNL     1       2.274   1.992   0.000  1.00  0.00     0.010 C 
ATOM      7  C   UNL     1       0.731  -0.098   0.000  1.00  0.00    -0.022 C 
ATOM      8  C   UNL     1       2.106   0.501   0.000  1.00  0.00     0.013 C 
ATOM      9  C   UNL     1       0.563  -1.589   0.000  1.00  0.00     0.008 C 
ATOM     10  C   UNL     1       3.313  -0.389   0.000  1.00  0.00     0.068 C 
ATOM     11  C   UNL     1       1.770  -2.480   0.000  1.00  0.00     0.002 C 
ATOM     12  C   UNL     1       3.145  -1.880   0.000  1.00  0.00     0.019 C 
ATOM     13  C   UNL     1      -1.515   3.174   0.000  1.00  0.00     0.008 C 
ATOM     14  C   UNL     1      -0.644  -0.698   0.000  1.00  0.00     0.012 C 
ATOM     15  C   UNL     1       3.980   0.954   0.000  1.00  0.00     0.024 C 
BRANCH  10  16
ATOM     16  C   UNL     1       4.752  -0.814   0.000  1.00  0.00     0.309 C 
ATOM     17  O   UNL     1       5.838   0.220   0.000  1.00  0.00    -0.252 OA
BRANCH  16  18
ATOM     18  O   UNL     1       5.104  -2.272   0.000  1.00  0.00    -0.481 OA
ATOM     19  H   UNL     1       0.000   0.000   0.000  1.00  0.00     0.296 HD
ENDBRANCH  16  18
ENDBRANCH  10  16
ENDBRANCH   2   3
ENDBRANCH   1   2
BRANCH   1  20
ATOM     20  C   UNL     1      -4.433   0.483   0.000  1.00  0.00    -0.012 C 
ATOM     21  C   UNL     1      -5.639   1.374   0.000  1.00  0.00     0.008 C 
BRANCH  20  22
ATOM     22  C   UNL     1      -4.600  -1.007   0.000  1.00  0.00     0.031 C 
BRANCH  22  23
ATOM     23  C   UNL     1      -5.975  -1.607   0.000  1.00  0.00     0.156 C 
BRANCH  23  24
ATOM     24  O   UNL     1      -6.143  -3.098   0.000  1.00  0.00    -0.396 OA
ATOM     25  H   UNL     1       0.000   0.000   0.000  1.00  0.00     0.210 HD
ENDBRANCH  23  24
ENDBRANCH  22  23
ENDBRANCH  20  22
ENDBRANCH   1  20
TORSDOF 8
