REMARK SMILES O=C1[C@@H]2CCCN2C(=O)[C@@H]2CCCN12
REMARK SMILES IDX 1 1 2 2 3 3 4 4 5 5 6 6 7 7 8 8 9 9 10 10 11 11 12 12 13 13
REMARK SMILES IDX 14 14
REMARK H PARENT
ROOT
ATOM      1  O   UNL     1       0.000  -3.000   0.000  1.00  0.00    -0.272 OA
ATOM      2  C   UNL     1       0.000  -1.500   0.000  1.00  0.00     0.246 C 
ATOM      3  C   UNL     1      -1.299  -0.750   0.000  1.00  0.00     0.174 C 
ATOM      4  C   UNL     1      -2.726  -1.214   0.000  1.00  0.00     0.037 C 
ATOM      5  C   UNL     1      -3.607  -0.000   0.000  1.00  0.00     0.024 C 
ATOM      6  C   UNL     1      -2.726   1.214   0.000  1.00  0.00     0.120 C 
ATOM      7  N   UNL     1      -1.299   0.750   0.000  1.00  0.00    -0.329 N 
ATOM      8  C   UNL     1      -0.000   1.500   0.000  1.00  0.00     0.246 C 
ATOM      9  O   UNL     1      -0.000   3.000   0.000  1.00  0.00    -0.272 OA
ATOM     10  C   UNL     1       1.299   0.750   0.000  1.00  0.00     0.174 C 
ATOM     11  C   UNL     1       2.726   1.214   0.000  1.00  0.00     0.037 C 
ATOM     12  C   UNL     1       3.607   0.000   0.000  1.00  0.00     0.024 C 
ATOM     13  C   UNL     1       2.726  -1.214   0.000  1.00  0.00     0.120 C 
ATOM     14  N   UNL     1       1.299  -0.750   0.000  1.00  0.00    -0.329 N 
ENDROOT
TORSDOF 0
