REMARK SMILES C=C1C[C@@]23CC[C@@H]4C(C)(C)CCC[C@@]4(C)C2=CC[C@@H]1C3
REMARK SMILES IDX 1 1 2 2 3 3 4 4 5 5 6 6 7 7 8 8 9 9 10 10 11 11 12 12 13 13
REMARK SMILES IDX 14 14 15 15 16 16 17 17 18 18 19 19 20 20
REMARK H PARENT
ROOT
ATOM      1  C   UNL     1      -5.106  -1.228   0.000  1.00  0.00     0.008 C 
ATOM      2  C   UNL     1      -3.712  -0.675   0.000  1.00  0.00    -0.073 C 
ATOM      3  C   UNL     1      -2.445  -1.478   0.000  1.00  0.00     0.042 C 
ATOM      4  C   UNL     1      -1.290  -0.521   0.000  1.00  0.00    -0.004 C 
ATOM      5  C   UNL     1      -0.594  -1.850   0.000  1.00  0.00     0.012 C 
ATOM      6  C   UNL     1       0.905  -1.912   0.000  1.00  0.00     0.006 C 
ATOM      7  C   UNL     1       1.708  -0.645   0.000  1.00  0.00     0.005 C 
ATOM      8  C   UNL     1       3.207  -0.707   0.000  1.00  0.00    -0.032 C 
ATOM      9  C   UNL     1       4.594  -1.278   0.000  1.00  0.00     0.011 C 
ATOM     10  C   UNL     1       2.885  -2.172   0.000  1.00  0.00     0.011 C 
ATOM     11  C   UNL     1       4.010   0.560   0.000  1.00  0.00     0.007 C 
ATOM     12  C   UNL     1       3.314   1.889   0.000  1.00  0.00     0.001 C 
ATOM     13  C   UNL     1       1.815   1.951   0.000  1.00  0.00     0.011 C 
ATOM     14  C   UNL     1       1.012   0.684   0.000  1.00  0.00    -0.008 C 
ATOM     15  C   UNL     1       0.317   2.013   0.000  1.00  0.00     0.016 C 
ATOM     16  C   UNL     1      -0.486   0.746   0.000  1.00  0.00    -0.061 C 
ATOM     17  C   UNL     1      -1.182   2.075   0.000  1.00  0.00    -0.026 C 
ATOM     18  C   UNL     1      -2.681   2.137   0.000  1.00  0.00     0.035 C 
ATOM     19  C   UNL     1      -3.484   0.870   0.000  1.00  0.00     0.019 C 
ATOM     20  C   UNL     1      -2.788  -0.459   0.000  1.00  0.00     0.020 C 
ENDROOT
TORSDOF 0
