REMARK SMILES C=C1C(=O)O[C@H]2[C@H]1[C@H](OC(=O)C(C)C)C[C@]1(C)O[C@@](O)(C[C@H]1OC)[C@@]1(C)O[C@@H]21
REMARK SMILES IDX 8 1 7 2 2 3 3 4 5 5 6 6 1 7 4 8 28 9 27 10 25 11 26 12 9 14
REMARK SMILES IDX 10 15 11 16 12 17 13 18 14 19 15 20 16 21 18 22 22 23 19 24
REMARK SMILES IDX 21 25 17 26 23 28 24 29 20 30
REMARK H PARENT 20 31
REMARK Flexibility Score:   19.900
ROOT
ATOM      1  C   UNL     1      -1.199   0.131   0.000  1.00  0.00     0.191 C 
ENDROOT
BRANCH   1   2
ATOM      2  C   UNL     1      -1.198  -1.369   0.000  1.00  0.00     0.111 C 
ATOM      3  C   UNL     1      -2.589  -1.932   0.000  1.00  0.00     0.041 C 
ATOM      4  C   UNL     1      -2.483  -3.428   0.000  1.00  0.00     0.334 C 
ATOM      5  O   UNL     1      -1.028  -3.790   0.000  1.00  0.00    -0.455 OA
ATOM      6  C   UNL     1      -0.234  -2.518   0.000  1.00  0.00     0.220 C 
ATOM      7  C   UNL     1      -3.861  -1.137   0.000  1.00  0.00     0.021 C 
ATOM      8  O   UNL     1      -3.632  -4.393   0.000  1.00  0.00    -0.247 OA
BRANCH   6   9
ATOM      9  C   UNL     1       1.244  -2.777   0.000  1.00  0.00     0.198 C 
ATOM     10  O   UNL     1       2.543  -3.527   0.000  1.00  0.00    -0.356 OA
ATOM     11  C   UNL     1       2.542  -2.027   0.000  1.00  0.00     0.149 CG0
ATOM     12  C   UNL     1       4.020  -2.287   0.000  1.00  0.00     0.051 C 
ATOM     13  G   UNL     1       3.055  -0.617   0.000  1.00  0.00     0.000 G0
ENDBRANCH   6   9
ENDBRANCH   1   2
BRANCH   1  14
ATOM     14  O   UNL     1      -2.609   0.643   0.000  1.00  0.00    -0.461 OA
BRANCH  14  15
ATOM     15  C   UNL     1      -2.870   2.120   0.000  1.00  0.00     0.308 C 
ATOM     16  O   UNL     1      -1.722   3.085   0.000  1.00  0.00    -0.252 OA
BRANCH  15  17
ATOM     17  C   UNL     1      -4.280   2.633   0.000  1.00  0.00     0.093 C 
ATOM     18  C   UNL     1      -4.541   4.110   0.000  1.00  0.00     0.019 C 
ATOM     19  C   UNL     1      -5.428   1.668   0.000  1.00  0.00     0.019 C 
ENDBRANCH  15  17
ENDBRANCH  14  15
ENDBRANCH   1  14
BRANCH   1  20
ATOM     20  C   UNL     1      -0.235   1.280   0.000  1.00  0.00     0.084 C 
BRANCH  20  21
ATOM     21  C   UNL     1       1.242   1.542   0.000  1.00  0.00     0.099 C 
ATOM     22  O   UNL     1       2.541   0.792   0.000  1.00  0.00    -0.338 OA
ATOM     23  C   UNL     1       2.884   1.804   0.000  1.00  0.00     0.155 C 
ATOM     24  C   UNL     1       3.055  -0.617   0.000  1.00  0.00     0.200 CG0
ATOM     25  C   UNL     1       3.849   0.655   0.000  1.00  0.00     0.104 C 
ATOM     26  C   UNL     1       1.501   3.019   0.000  1.00  0.00     0.045 C 
ATOM     27  G   UNL     1       2.542  -2.027   0.000  1.00  0.00     0.000 G0
BRANCH  23  28
ATOM     28  O   UNL     1       3.246   3.260   0.000  1.00  0.00    -0.378 OA
ATOM     29  C   UNL     1       4.688   3.674   0.000  1.00  0.00     0.195 C 
ENDBRANCH  23  28
BRANCH  24  30
ATOM     30  O   UNL     1       4.555  -0.616   0.000  1.00  0.00    -0.363 OA
ATOM     31  H   UNL     1       0.000   0.000   0.000  1.00  0.00     0.214 HD
ENDBRANCH  24  30
ENDBRANCH  20  21
ENDBRANCH   1  20
TORSDOF 5
