REMARK SMILES C/C(=C/CC[C@H](C)[C@@H]1CC[C@]2(C)C3=CC[C@H]4C(C)(C)C(=NO)CC[C@]4(C)[C@H]3CC[C@@]12C)C(=O)O
REMARK SMILES IDX 4 1 3 2 2 3 1 4 32 5 33 6 34 7 5 9 6 10 7 11 8 12 9 13 30 14
REMARK SMILES IDX 10 15 29 16 11 17 28 18 13 19 27 20 14 21 25 22 15 23 24 24
REMARK SMILES IDX 16 25 23 26 17 27 20 28 31 29 12 30 26 31 18 32 19 33 21 34
REMARK SMILES IDX 22 35
REMARK H PARENT 34 8 22 36
ROOT
ATOM      1  C   UNL     1       5.280  -0.382   0.000  1.00  0.00     0.028 C 
ENDROOT
BRANCH   1   2
ATOM      2  C   UNL     1       5.566  -1.854   0.000  1.00  0.00    -0.016 C 
BRANCH   2   3
ATOM      3  C   UNL     1       6.984  -2.343   0.000  1.00  0.00     0.030 C 
ATOM      4  C   UNL     1       7.270  -3.815   0.000  1.00  0.00     0.052 C 
BRANCH   3   5
ATOM      5  C   UNL     1       8.117  -1.359   0.000  1.00  0.00     0.330 C 
ATOM      6  O   UNL     1       7.831   0.114   0.000  1.00  0.00    -0.247 OA
BRANCH   5   7
ATOM      7  O   UNL     1       9.535  -1.848   0.000  1.00  0.00    -0.478 OA
ATOM      8  H   UNL     1       0.000   0.000   0.000  1.00  0.00     0.297 HD
ENDBRANCH   5   7
ENDBRANCH   3   5
ENDBRANCH   2   3
ENDBRANCH   1   2
BRANCH   1   9
ATOM      9  C   UNL     1       3.862   0.107   0.000  1.00  0.00     0.008 C 
BRANCH   9  10
ATOM     10  C   UNL     1       3.576   1.580   0.000  1.00  0.00    -0.010 C 
ATOM     11  C   UNL     1       4.709   2.563   0.000  1.00  0.00     0.008 C 
BRANCH  10  12
ATOM     12  C   UNL     1       2.158   2.068   0.000  1.00  0.00    -0.001 C 
ATOM     13  C   UNL     1       1.720   3.503   0.000  1.00  0.00     0.005 C 
ATOM     14  C   UNL     1       0.929   1.208   0.000  1.00  0.00    -0.020 C 
ATOM     15  C   UNL     1       0.220   3.530   0.000  1.00  0.00     0.012 C 
ATOM     16  C   UNL     1       0.746  -0.281   0.000  1.00  0.00     0.008 C 
ATOM     17  C   UNL     1      -0.268   2.111   0.000  1.00  0.00    -0.006 C 
ATOM     18  C   UNL     1      -0.635  -0.866   0.000  1.00  0.00     0.009 C 
ATOM     19  C   UNL     1      -1.649   1.526   0.000  1.00  0.00    -0.064 C 
ATOM     20  C   UNL     1      -1.833   0.037   0.000  1.00  0.00     0.021 C 
ATOM     21  C   UNL     1      -2.847   2.429   0.000  1.00  0.00    -0.027 C 
ATOM     22  C   UNL     1      -3.213  -0.549   0.000  1.00  0.00    -0.022 C 
ATOM     23  C   UNL     1      -4.228   1.843   0.000  1.00  0.00     0.032 C 
ATOM     24  C   UNL     1      -3.397  -2.038   0.000  1.00  0.00     0.014 C 
ATOM     25  C   UNL     1      -4.411   0.354   0.000  1.00  0.00     0.011 C 
ATOM     26  C   UNL     1      -4.777  -2.623   0.000  1.00  0.00     0.056 C 
ATOM     27  C   UNL     1      -5.792  -0.232   0.000  1.00  0.00     0.010 C 
ATOM     28  C   UNL     1      -5.975  -1.720   0.000  1.00  0.00     0.063 C 
ATOM     29  C   UNL     1       2.215   0.435   0.000  1.00  0.00     0.012 C 
ATOM     30  C   UNL     1      -1.365   3.135   0.000  1.00  0.00     0.017 C 
ATOM     31  C   UNL     1      -2.016  -1.452   0.000  1.00  0.00     0.012 C 
ATOM     32  C   UNL     1      -7.290  -0.310   0.000  1.00  0.00     0.018 C 
ATOM     33  C   UNL     1      -6.129   1.230   0.000  1.00  0.00     0.018 C 
BRANCH  28  34
ATOM     34  N   UNL     1      -7.356  -2.306   0.000  1.00  0.00    -0.098 NA
BRANCH  34  35
ATOM     35  O   UNL     1      -7.539  -3.795   0.000  1.00  0.00    -0.411 OA
ATOM     36  H   UNL     1       0.000   0.000   0.000  1.00  0.00     0.330 HD
ENDBRANCH  34  35
ENDBRANCH  28  34
ENDBRANCH  10  12
ENDBRANCH   9  10
ENDBRANCH   1   9
TORSDOF 9
