REMARK SMILES C=CCC12CC(=O)C(O)C(C(C)[C@@H]1c1cc(OC)c3c(c1)OCO3)C2O
REMARK SMILES IDX 4 1 5 2 6 3 7 4 8 5 10 6 11 7 12 8 13 9 25 10 3 11 2 12 1 13
REMARK SMILES IDX 14 14 15 15 21 16 16 17 20 18 19 19 22 20 24 21 23 22 17 23
REMARK SMILES IDX 18 24 26 25 9 27
REMARK H PARENT 26 26 9 28
ROOT
ATOM      1  C   UNL     1       1.737  -0.706   0.000  1.00  0.00     0.014 C 
ATOM      2  C   UNL     1       3.020  -1.482   0.000  1.00  0.00     0.089 C 
ATOM      3  C   UNL     1       4.335  -0.759   0.000  1.00  0.00     0.162 C 
ATOM      4  O   UNL     1       5.618  -1.535   0.000  1.00  0.00    -0.297 OA
ATOM      5  C   UNL     1       4.365   0.741   0.000  1.00  0.00     0.187 C 
ATOM      6  C   UNL     1       3.082   1.517   0.000  1.00  0.00     0.058 C 
ATOM      7  C   UNL     1       1.621   1.859   0.000  1.00  0.00     0.003 C 
ATOM      8  C   UNL     1       1.039   3.241   0.000  1.00  0.00     0.009 C 
ATOM      9  C   UNL     1       0.845   0.575   0.000  1.00  0.00     0.032 C 
ATOM     10  C   UNL     1       1.768   0.793   0.000  1.00  0.00     0.128 C 
ENDROOT
BRANCH   1  11
ATOM     11  C   UNL     1       0.423  -1.430   0.000  1.00  0.00     0.037 C 
BRANCH  11  12
ATOM     12  C   UNL     1       0.392  -2.929   0.000  1.00  0.00    -0.034 C 
ATOM     13  C   UNL     1      -0.922  -3.653   0.000  1.00  0.00     0.004 C 
ENDBRANCH  11  12
ENDBRANCH   1  11
BRANCH   9  14
ATOM     14  C   UNL     1      -0.650   0.449   0.000  1.00  0.00    -0.036 A 
ATOM     15  C   UNL     1      -1.288  -0.909   0.000  1.00  0.00     0.054 A 
ATOM     16  C   UNL     1      -1.507   1.680   0.000  1.00  0.00     0.055 A 
ATOM     17  C   UNL     1      -2.783  -1.035   0.000  1.00  0.00     0.165 A 
ATOM     18  C   UNL     1      -3.002   1.554   0.000  1.00  0.00     0.169 A 
ATOM     19  C   UNL     1      -3.639   0.196   0.000  1.00  0.00     0.207 A 
ATOM     20  O   UNL     1      -4.096   2.580   0.000  1.00  0.00    -0.453 OA
ATOM     21  O   UNL     1      -5.128   0.383   0.000  1.00  0.00    -0.450 OA
ATOM     22  C   UNL     1      -5.410   1.856   0.000  1.00  0.00     0.468 C 
BRANCH  17  23
ATOM     23  O   UNL     1      -3.420  -2.393   0.000  1.00  0.00    -0.493 OA
ATOM     24  C   UNL     1      -2.564  -3.624   0.000  1.00  0.00     0.278 C 
ENDBRANCH  17  23
ENDBRANCH   9  14
BRANCH  10  25
ATOM     25  O   UNL     1       0.484   1.570   0.000  1.00  0.00    -0.392 OA
ATOM     26  H   UNL     1       0.000   0.000   0.000  1.00  0.00     0.210 HD
ENDBRANCH  10  25
BRANCH   5  27
ATOM     27  O   UNL     1       5.679   1.464   0.000  1.00  0.00    -0.385 OA
ATOM     28  H   UNL     1       0.000   0.000   0.000  1.00  0.00     0.211 HD
ENDBRANCH   5  27
TORSDOF 6
