REMARK SMILES CC1(C)CC[C@]2(C(=O)O[C@@H]3O[C@H](CO)[C@@H](O)[C@H](O)[C@H]3O)CC[C@]3(C)C(=CC[C@@H]4[C@@]5(C)C[C@@H](O)[C@H](O)[C@@](C)(CO)[C@@H]5[C@H](O)C[C@]43C)[C@@H]2C1
REMARK SMILES IDX 7 1 8 2 6 3 2 4 4 5 47 6 5 7 46 8 25 9 21 10 23 11 26 12
REMARK SMILES IDX 22 13 44 14 27 15 43 16 28 17 41 18 29 19 40 20 31 21 36 22
REMARK SMILES IDX 32 23 34 24 1 25 3 26 24 27 45 28 30 29 37 30 42 31 38 33
REMARK SMILES IDX 39 34 33 36 35 38 9 40 10 41 11 42 19 43 12 44 17 45 15 46
REMARK SMILES IDX 20 47 13 49 14 50 18 52 16 54
REMARK H PARENT 42 32 39 35 33 37 35 39 20 48 14 51 18 53 16 55
ROOT
ATOM      1  C   UNL     1      -3.364  -1.052   0.000  1.00  0.00     0.315 C 
ATOM      2  O   UNL     1      -4.731  -1.670   0.000  1.00  0.00    -0.252 OA
ENDROOT
BRANCH   1   3
ATOM      3  C   UNL     1      -2.145  -1.926   0.000  1.00  0.00     0.075 C 
ATOM      4  C   UNL     1      -2.442  -4.912   0.000  1.00  0.00    -0.035 C 
ATOM      5  C   UNL     1      -3.660  -4.037   0.000  1.00  0.00     0.007 C 
ATOM      6  C   UNL     1      -1.075  -4.294   0.000  1.00  0.00     0.015 C 
ATOM      7  C   UNL     1      -3.512  -2.544   0.000  1.00  0.00     0.020 C 
ATOM      8  C   UNL     1      -0.927  -2.801   0.000  1.00  0.00     0.033 C 
ATOM      9  C   UNL     1       0.440  -2.183   0.000  1.00  0.00    -0.063 C 
ATOM     10  C   UNL     1      -1.997  -0.434   0.000  1.00  0.00     0.020 C 
ATOM     11  C   UNL     1       0.588  -0.690   0.000  1.00  0.00    -0.006 C 
ATOM     12  C   UNL     1       1.659  -3.058   0.000  1.00  0.00    -0.027 C 
ATOM     13  C   UNL     1      -0.630   0.184   0.000  1.00  0.00     0.013 C 
ATOM     14  C   UNL     1       1.955  -0.072   0.000  1.00  0.00    -0.017 C 
ATOM     15  C   UNL     1       3.026  -2.440   0.000  1.00  0.00     0.032 C 
ATOM     16  C   UNL     1       2.103   1.420   0.000  1.00  0.00     0.040 C 
ATOM     17  C   UNL     1       3.174  -0.947   0.000  1.00  0.00     0.006 C 
ATOM     18  C   UNL     1       3.470   2.038   0.000  1.00  0.00     0.119 C 
ATOM     19  C   UNL     1       4.540  -0.329   0.000  1.00  0.00    -0.020 C 
ATOM     20  C   UNL     1       4.689   1.163   0.000  1.00  0.00     0.035 C 
ATOM     21  C   UNL     1       5.759  -1.204   0.000  1.00  0.00     0.042 C 
ATOM     22  C   UNL     1       6.056   1.781   0.000  1.00  0.00     0.025 C 
ATOM     23  C   UNL     1       7.126  -0.586   0.000  1.00  0.00     0.144 C 
ATOM     24  C   UNL     1       7.274   0.907   0.000  1.00  0.00     0.151 C 
ATOM     25  C   UNL     1      -1.596  -6.150   0.000  1.00  0.00     0.011 C 
ATOM     26  C   UNL     1      -3.515  -5.960   0.000  1.00  0.00     0.011 C 
ATOM     27  C   UNL     1       1.807  -1.565   0.000  1.00  0.00     0.017 C 
ATOM     28  C   UNL     1       0.737   0.802   0.000  1.00  0.00     0.013 C 
ATOM     29  C   UNL     1       4.392  -1.822   0.000  1.00  0.00     0.012 C 
ATOM     30  C   UNL     1       5.210   3.020   0.000  1.00  0.00     0.017 C 
BRANCH  18  31
ATOM     31  O   UNL     1       3.618   3.531   0.000  1.00  0.00    -0.393 OA
ATOM     32  H   UNL     1       0.000   0.000   0.000  1.00  0.00     0.210 HD
ENDBRANCH  18  31
BRANCH  22  33
ATOM     33  C   UNL     1       7.129   2.830   0.000  1.00  0.00     0.166 C 
BRANCH  33  34
ATOM     34  O   UNL     1       6.757   4.283   0.000  1.00  0.00    -0.396 OA
ATOM     35  H   UNL     1       0.000   0.000   0.000  1.00  0.00     0.210 HD
ENDBRANCH  33  34
ENDBRANCH  22  33
BRANCH  23  36
ATOM     36  O   UNL     1       8.345  -1.461   0.000  1.00  0.00    -0.390 OA
ATOM     37  H   UNL     1       0.000   0.000   0.000  1.00  0.00     0.211 HD
ENDBRANCH  23  36
BRANCH  24  38
ATOM     38  O   UNL     1       8.641   1.525   0.000  1.00  0.00    -0.390 OA
ATOM     39  H   UNL     1       0.000   0.000   0.000  1.00  0.00     0.211 HD
ENDBRANCH  24  38
ENDBRANCH   1   3
BRANCH   1  40
ATOM     40  O   UNL     1      -3.216   0.441   0.000  1.00  0.00    -0.432 OA
BRANCH  40  41
ATOM     41  C   UNL     1      -4.434   1.316   0.000  1.00  0.00     0.342 C 
ATOM     42  O   UNL     1      -4.286   2.808   0.000  1.00  0.00    -0.332 OA
ATOM     43  C   UNL     1      -5.801   0.698   0.000  1.00  0.00     0.214 C 
ATOM     44  C   UNL     1      -5.504   3.683   0.000  1.00  0.00     0.179 C 
ATOM     45  C   UNL     1      -7.019   1.572   0.000  1.00  0.00     0.180 C 
ATOM     46  C   UNL     1      -6.871   3.065   0.000  1.00  0.00     0.177 C 
BRANCH  43  47
ATOM     47  O   UNL     1      -5.949  -0.795   0.000  1.00  0.00    -0.384 OA
ATOM     48  H   UNL     1       0.000   0.000   0.000  1.00  0.00     0.211 HD
ENDBRANCH  43  47
BRANCH  44  49
ATOM     49  C   UNL     1      -5.356   5.176   0.000  1.00  0.00     0.191 C 
BRANCH  49  50
ATOM     50  O   UNL     1      -3.989   5.794   0.000  1.00  0.00    -0.394 OA
ATOM     51  H   UNL     1       0.000   0.000   0.000  1.00  0.00     0.210 HD
ENDBRANCH  49  50
ENDBRANCH  44  49
BRANCH  45  52
ATOM     52  O   UNL     1      -8.386   0.955   0.000  1.00  0.00    -0.387 OA
ATOM     53  H   UNL     1       0.000   0.000   0.000  1.00  0.00     0.211 HD
ENDBRANCH  45  52
BRANCH  46  54
ATOM     54  O   UNL     1      -8.090   3.940   0.000  1.00  0.00    -0.387 OA
ATOM     55  H   UNL     1       0.000   0.000   0.000  1.00  0.00     0.211 HD
ENDBRANCH  46  54
ENDBRANCH  40  41
ENDBRANCH   1  40
TORSDOF 13
