REMARK SMILES O=C1N[C@@H](Cc2ccccc2)C(=O)N2C[C@H](O)C[C@@H]12
REMARK SMILES IDX 1 1 2 2 3 3 4 4 12 5 13 6 14 7 15 8 16 9 18 10 19 11 5 13
REMARK SMILES IDX 6 14 7 15 11 16 8 17 10 18 9 19 17 20
REMARK H PARENT 3 12 17 21
ROOT
ATOM      1  O   UNL     1      -3.349   3.013   0.000  1.00  0.00    -0.273 OA
ATOM      2  C   UNL     1      -2.282   1.958   0.000  1.00  0.00     0.243 C 
ATOM      3  N   UNL     1      -0.836   2.355   0.000  1.00  0.00    -0.342 N 
ATOM      4  C   UNL     1       0.231   1.301   0.000  1.00  0.00     0.176 C 
ATOM      5  C   UNL     1      -0.149  -0.150   0.000  1.00  0.00     0.246 C 
ATOM      6  O   UNL     1       0.918  -1.205   0.000  1.00  0.00    -0.272 OA
ATOM      7  N   UNL     1      -1.595  -0.547   0.000  1.00  0.00    -0.326 N 
ATOM      8  C   UNL     1      -2.268  -1.888   0.000  1.00  0.00     0.152 C 
ATOM      9  C   UNL     1      -3.751  -1.662   0.000  1.00  0.00     0.136 C 
ATOM     10  C   UNL     1      -3.995  -0.182   0.000  1.00  0.00     0.069 C 
ATOM     11  C   UNL     1      -2.662   0.507   0.000  1.00  0.00     0.177 C 
ATOM     12  H   UNL     1       0.000   0.000   0.000  1.00  0.00     0.164 HD
ENDROOT
BRANCH   4  13
ATOM     13  C   UNL     1       1.678   1.697   0.000  1.00  0.00     0.070 C 
BRANCH  13  14
ATOM     14  C   UNL     1       2.744   0.643   0.000  1.00  0.00    -0.045 A 
ATOM     15  C   UNL     1       2.365  -0.808   0.000  1.00  0.00     0.004 A 
ATOM     16  C   UNL     1       4.191   1.040   0.000  1.00  0.00     0.004 A 
ATOM     17  C   UNL     1       3.432  -1.863   0.000  1.00  0.00     0.000 A 
ATOM     18  C   UNL     1       5.258  -0.015   0.000  1.00  0.00     0.000 A 
ATOM     19  C   UNL     1       4.878  -1.466   0.000  1.00  0.00     0.000 A 
ENDBRANCH  13  14
ENDBRANCH   4  13
BRANCH   9  20
ATOM     20  O   UNL     1      -4.806  -2.728   0.000  1.00  0.00    -0.391 OA
ATOM     21  H   UNL     1       0.000   0.000   0.000  1.00  0.00     0.211 HD
ENDBRANCH   9  20
TORSDOF 3
