REMARK SMILES O=c1c2ccc(O)cc2oc2cccc(O)c12
REMARK SMILES IDX 1 1 2 2 3 3 4 4 5 5 6 6 8 7 9 8 10 9 11 10 12 11 13 12 14 13
REMARK SMILES IDX 15 14 17 15 16 16 7 18
REMARK H PARENT 16 17 7 19
ROOT
ATOM      1  O   UNL     1      -0.619  -2.669   0.000  1.00  0.00    -0.288 OA
ATOM      2  C   UNL     1      -0.362  -1.191   0.000  1.00  0.00     0.204 A 
ATOM      3  C   UNL     1       1.046  -0.674   0.000  1.00  0.00     0.066 A 
ATOM      4  C   UNL     1       2.197  -1.636   0.000  1.00  0.00     0.020 A 
ATOM      5  C   UNL     1       3.606  -1.119   0.000  1.00  0.00     0.047 A 
ATOM      6  C   UNL     1       3.863   0.358   0.000  1.00  0.00     0.119 A 
ATOM      7  C   UNL     1       2.711   1.320   0.000  1.00  0.00     0.094 A 
ATOM      8  C   UNL     1       1.303   0.803   0.000  1.00  0.00     0.142 A 
ATOM      9  O   UNL     1       0.152   1.765   0.000  1.00  0.00    -0.456 OA
ATOM     10  C   UNL     1      -1.257   1.248   0.000  1.00  0.00     0.142 A 
ATOM     11  C   UNL     1      -2.408   2.210   0.000  1.00  0.00     0.048 A 
ATOM     12  C   UNL     1      -3.816   1.693   0.000  1.00  0.00     0.008 A 
ATOM     13  C   UNL     1      -4.073   0.215   0.000  1.00  0.00     0.047 A 
ATOM     14  C   UNL     1      -2.922  -0.746   0.000  1.00  0.00     0.130 A 
ATOM     15  C   UNL     1      -1.514  -0.230   0.000  1.00  0.00     0.107 A 
ENDROOT
BRANCH  14  16
ATOM     16  O   UNL     1      -3.179  -2.224   0.000  1.00  0.00    -0.507 OA
ATOM     17  H   UNL     1       0.000   0.000   0.000  1.00  0.00     0.293 HD
ENDBRANCH  14  16
BRANCH   6  18
ATOM     18  O   UNL     1       5.271   0.875   0.000  1.00  0.00    -0.508 OA
ATOM     19  H   UNL     1       0.000   0.000   0.000  1.00  0.00     0.293 HD
ENDBRANCH   6  18
TORSDOF 2
