REMARK SMILES COC(=O)[C@@H]1c2ccoc2C[C@H]2[C@H]1[C@@H](OC(C)=O)[C@H](O)[C@H]1C(C)(C)CCC[C@]21C
REMARK SMILES IDX 5 1 6 2 10 3 11 4 12 5 13 6 14 7 19 8 21 9 22 10 23 11 24 12
REMARK SMILES IDX 25 13 26 14 27 15 28 16 29 17 9 18 8 19 7 20 3 21 4 22 2 23
REMARK SMILES IDX 1 24 15 25 16 26 17 27 18 28 20 29
REMARK H PARENT 20 30
ROOT
ATOM      1  C   UNL     1      -2.152   0.135   0.000  1.00  0.00     0.140 C 
ATOM      2  C   UNL     1      -3.084  -1.040   0.000  1.00  0.00     0.008 A 
ATOM      3  C   UNL     1      -2.532  -2.435   0.000  1.00  0.00     0.108 A 
ATOM      4  C   UNL     1      -1.048  -2.655   0.000  1.00  0.00     0.080 C 
ATOM      5  C   UNL     1      -0.116  -1.479   0.000  1.00  0.00     0.011 C 
ATOM      6  C   UNL     1      -0.668  -0.084   0.000  1.00  0.00     0.056 C 
ATOM      7  C   UNL     1       0.264   1.091   0.000  1.00  0.00     0.210 C 
ATOM      8  C   UNL     1       1.748   0.872   0.000  1.00  0.00     0.159 C 
ATOM      9  C   UNL     1       2.300  -0.523   0.000  1.00  0.00     0.033 C 
ATOM     10  C   UNL     1       3.784  -0.743   0.000  1.00  0.00    -0.029 C 
ATOM     11  C   UNL     1       5.253  -0.442   0.000  1.00  0.00     0.011 C 
ATOM     12  C   UNL     1       3.742   0.757   0.000  1.00  0.00     0.011 C 
ATOM     13  C   UNL     1       4.335  -2.138   0.000  1.00  0.00     0.007 C 
ATOM     14  C   UNL     1       3.404  -3.313   0.000  1.00  0.00     0.001 C 
ATOM     15  C   UNL     1       1.920  -3.093   0.000  1.00  0.00     0.007 C 
ATOM     16  C   UNL     1       1.368  -1.699   0.000  1.00  0.00    -0.023 C 
ATOM     17  C   UNL     1       0.436  -2.874   0.000  1.00  0.00     0.012 C 
ATOM     18  O   UNL     1      -3.688  -3.391   0.000  1.00  0.00    -0.469 OA
ATOM     19  C   UNL     1      -4.954  -2.587   0.000  1.00  0.00     0.195 A 
ATOM     20  C   UNL     1      -4.581  -1.134   0.000  1.00  0.00     0.047 A 
ENDROOT
BRANCH   1  21
ATOM     21  C   UNL     1      -2.704   1.530   0.000  1.00  0.00     0.313 C 
ATOM     22  O   UNL     1      -4.188   1.749   0.000  1.00  0.00    -0.252 OA
BRANCH  21  23
ATOM     23  O   UNL     1      -1.772   2.705   0.000  1.00  0.00    -0.469 OA
ATOM     24  C   UNL     1      -2.324   4.100   0.000  1.00  0.00     0.282 C 
ENDBRANCH  21  23
ENDBRANCH   1  21
BRANCH   7  25
ATOM     25  O   UNL     1      -0.288   2.486   0.000  1.00  0.00    -0.459 OA
BRANCH  25  26
ATOM     26  C   UNL     1       0.644   3.661   0.000  1.00  0.00     0.303 C 
ATOM     27  C   UNL     1       0.092   5.056   0.000  1.00  0.00     0.139 C 
ATOM     28  O   UNL     1       2.128   3.442   0.000  1.00  0.00    -0.253 OA
ENDBRANCH  25  26
ENDBRANCH   7  25
BRANCH   8  29
ATOM     29  O   UNL     1       2.680   2.047   0.000  1.00  0.00    -0.389 OA
ATOM     30  H   UNL     1       0.000   0.000   0.000  1.00  0.00     0.211 HD
ENDBRANCH   8  29
TORSDOF 5
