REMARK SMILES COC(=O)[C@H](O)[C@H]1C(C)(C)C(=O)C=C2O[C@]3(C)[C@@]45CC(=O)O[C@@H](c6ccoc6)[C@]4(C)C[C@@H](OC(C)=O)[C@@]35[C@@]21C
REMARK SMILES IDX 7 1 8 2 9 3 10 4 11 5 12 6 13 7 14 8 15 9 16 10 17 11 18 12
REMARK SMILES IDX 19 13 20 14 21 15 22 16 23 17 29 18 30 19 31 20 32 21 37 22
REMARK SMILES IDX 38 23 39 24 5 25 3 26 4 27 2 28 1 29 6 30 33 32 34 33 35 34
REMARK SMILES IDX 36 35 24 36 28 37 25 38 27 39 26 40
REMARK H PARENT 6 31
ROOT
ATOM      1  C   UNL     1      -2.399  -0.414   0.000  1.00  0.00     0.057 C 
ATOM      2  C   UNL     1      -3.839  -0.834   0.000  1.00  0.00     0.034 C 
ATOM      3  C   UNL     1      -4.002   0.657   0.000  1.00  0.00     0.020 C 
ATOM      4  C   UNL     1      -5.336  -0.736   0.000  1.00  0.00     0.020 C 
ATOM      5  C   UNL     1      -4.196  -2.291   0.000  1.00  0.00     0.165 C 
ATOM      6  O   UNL     1      -5.636  -2.711   0.000  1.00  0.00    -0.294 OA
ATOM      7  C   UNL     1      -3.112  -3.329   0.000  1.00  0.00     0.090 C 
ATOM      8  C   UNL     1      -1.672  -2.909   0.000  1.00  0.00     0.108 C 
ATOM      9  O   UNL     1      -0.396  -3.698   0.000  1.00  0.00    -0.490 OA
ATOM     10  C   UNL     1       0.749  -2.729   0.000  1.00  0.00     0.124 C 
ATOM     11  C   UNL     1       1.832  -3.766   0.000  1.00  0.00     0.058 C 
ATOM     12  C   UNL     1       1.667  -1.543   0.000  1.00  0.00     0.044 C 
ATOM     13  C   UNL     1       2.511  -2.783   0.000  1.00  0.00     0.135 C 
ATOM     14  C   UNL     1       4.007  -2.672   0.000  1.00  0.00     0.307 C 
ATOM     15  O   UNL     1       4.851  -3.912   0.000  1.00  0.00    -0.252 OA
ATOM     16  O   UNL     1       4.659  -1.321   0.000  1.00  0.00    -0.457 OA
ATOM     17  C   UNL     1       3.814  -0.081   0.000  1.00  0.00     0.217 C 
ATOM     18  C   UNL     1       2.318  -0.192   0.000  1.00  0.00     0.023 C 
ATOM     19  C   UNL     1       2.825   1.220   0.000  1.00  0.00     0.016 C 
ATOM     20  C   UNL     1       1.235   0.845   0.000  1.00  0.00     0.057 C 
ATOM     21  C   UNL     1      -0.086   0.136   0.000  1.00  0.00     0.189 C 
ATOM     22  C   UNL     1       0.181  -1.341   0.000  1.00  0.00     0.071 C 
ATOM     23  C   UNL     1      -1.315  -1.452   0.000  1.00  0.00     0.046 C 
ATOM     24  C   UNL     1      -0.808  -0.040   0.000  1.00  0.00     0.021 C 
ENDROOT
BRANCH   1  25
ATOM     25  C   UNL     1      -2.042   1.043   0.000  1.00  0.00     0.229 C 
BRANCH  25  26
ATOM     26  C   UNL     1      -3.126   2.080   0.000  1.00  0.00     0.335 C 
ATOM     27  O   UNL     1      -4.566   1.660   0.000  1.00  0.00    -0.249 OA
BRANCH  26  28
ATOM     28  O   UNL     1      -2.769   3.537   0.000  1.00  0.00    -0.467 OA
ATOM     29  C   UNL     1      -3.853   4.574   0.000  1.00  0.00     0.282 C 
ENDBRANCH  26  28
ENDBRANCH  25  26
BRANCH  25  30
ATOM     30  O   UNL     1      -0.602   1.462   0.000  1.00  0.00    -0.381 OA
ATOM     31  H   UNL     1       0.000   0.000   0.000  1.00  0.00     0.211 HD
ENDBRANCH  25  30
ENDBRANCH   1  25
BRANCH  21  32
ATOM     32  O   UNL     1      -1.437   0.787   0.000  1.00  0.00    -0.462 OA
BRANCH  32  33
ATOM     33  C   UNL     1      -1.548   2.283   0.000  1.00  0.00     0.302 C 
ATOM     34  C   UNL     1      -2.702   3.242   0.000  1.00  0.00     0.139 C 
ATOM     35  O   UNL     1      -0.309   3.127   0.000  1.00  0.00    -0.253 OA
ENDBRANCH  32  33
ENDBRANCH  21  32
BRANCH  17  36
ATOM     36  C   UNL     1       4.466   1.270   0.000  1.00  0.00     0.031 A 
ATOM     37  C   UNL     1       3.756   2.592   0.000  1.00  0.00     0.202 A 
ATOM     38  C   UNL     1       5.942   1.537   0.000  1.00  0.00     0.049 A 
ATOM     39  O   UNL     1       4.793   3.675   0.000  1.00  0.00    -0.472 OA
ATOM     40  C   UNL     1       6.144   3.023   0.000  1.00  0.00     0.195 A 
ENDBRANCH  17  36
TORSDOF 7
