REMARK SMILES CC1(C)[C@@H](O)CC[C@]2(C)[C@H]3CC[C@@H]4[C@H]5[C@H](C(=O)CO)CC[C@]5(C(=O)O[C@@H]5O[C@H](CO)[C@@H](O)[C@H](O)[C@H]5O)CC[C@@]4(C)[C@]3(C)CC[C@@H]12
REMARK SMILES IDX 23 1 24 2 22 3 2 4 4 5 45 6 6 7 44 8 8 9 7 10 43 11 10 12
REMARK SMILES IDX 41 13 11 14 39 15 12 16 38 17 13 18 37 19 14 20 15 21 21 22
REMARK SMILES IDX 20 23 1 24 3 25 9 26 42 27 40 28 5 29 16 31 17 32 18 33
REMARK SMILES IDX 19 34 25 36 26 37 27 38 35 39 28 40 33 41 31 42 36 43 29 45
REMARK SMILES IDX 30 46 34 48 32 50
REMARK H PARENT 5 30 19 35 36 44 30 47 34 49 32 51
ROOT
ATOM      1  C   UNL     1      -3.040  -1.025   0.000  1.00  0.00     0.314 C 
ATOM      2  O   UNL     1      -4.269  -1.885   0.000  1.00  0.00    -0.252 OA
ENDROOT
BRANCH   1   3
ATOM      3  C   UNL     1      -1.681  -1.660   0.000  1.00  0.00     0.072 C 
ATOM      4  C   UNL     1       6.192   2.701   0.000  1.00  0.00    -0.006 C 
ATOM      5  C   UNL     1       7.478   1.928   0.000  1.00  0.00     0.120 C 
ATOM      6  C   UNL     1       4.880   1.974   0.000  1.00  0.00     0.003 C 
ATOM      7  C   UNL     1       7.451   0.428   0.000  1.00  0.00     0.033 C 
ATOM      8  C   UNL     1       3.595   2.747   0.000  1.00  0.00     0.005 C 
ATOM      9  C   UNL     1       4.854   0.474   0.000  1.00  0.00    -0.026 C 
ATOM     10  C   UNL     1       6.139  -0.299   0.000  1.00  0.00     0.010 C 
ATOM     11  C   UNL     1       2.283   2.020   0.000  1.00  0.00     0.008 C 
ATOM     12  C   UNL     1       3.541  -0.253   0.000  1.00  0.00     0.002 C 
ATOM     13  C   UNL     1       2.256   0.520   0.000  1.00  0.00    -0.024 C 
ATOM     14  C   UNL     1       3.515  -1.752   0.000  1.00  0.00     0.005 C 
ATOM     15  C   UNL     1       0.944  -0.206   0.000  1.00  0.00    -0.024 C 
ATOM     16  C   UNL     1       2.203  -2.479   0.000  1.00  0.00     0.005 C 
ATOM     17  C   UNL     1      -0.342   0.567   0.000  1.00  0.00     0.009 C 
ATOM     18  C   UNL     1       0.917  -1.706   0.000  1.00  0.00     0.000 C 
ATOM     19  C   UNL     1      -1.654  -0.160   0.000  1.00  0.00     0.020 C 
ATOM     20  C   UNL     1      -0.395  -2.433   0.000  1.00  0.00     0.021 C 
ATOM     21  C   UNL     1      -0.733  -3.894   0.000  1.00  0.00     0.063 C 
ATOM     22  C   UNL     1      -2.813  -2.643   0.000  1.00  0.00     0.020 C 
ATOM     23  C   UNL     1      -2.228  -4.024   0.000  1.00  0.00     0.013 C 
ATOM     24  C   UNL     1       5.249   3.867   0.000  1.00  0.00     0.014 C 
ATOM     25  C   UNL     1       7.177   3.833   0.000  1.00  0.00     0.014 C 
ATOM     26  C   UNL     1       4.827  -1.026   0.000  1.00  0.00     0.012 C 
ATOM     27  C   UNL     1       3.568   1.247   0.000  1.00  0.00     0.012 C 
ATOM     28  C   UNL     1       0.970   1.294   0.000  1.00  0.00     0.012 C 
BRANCH   5  29
ATOM     29  O   UNL     1       8.790   2.655   0.000  1.00  0.00    -0.393 OA
ATOM     30  H   UNL     1       0.000   0.000   0.000  1.00  0.00     0.210 HD
ENDBRANCH   5  29
BRANCH  21  31
ATOM     31  C   UNL     1       0.251  -5.027   0.000  1.00  0.00     0.161 C 
ATOM     32  O   UNL     1       1.723  -4.741   0.000  1.00  0.00    -0.297 OA
BRANCH  31  33
ATOM     33  C   UNL     1      -0.238  -6.445   0.000  1.00  0.00     0.231 C 
BRANCH  33  34
ATOM     34  O   UNL     1       0.746  -7.577   0.000  1.00  0.00    -0.389 OA
ATOM     35  H   UNL     1       0.000   0.000   0.000  1.00  0.00     0.211 HD
ENDBRANCH  33  34
ENDBRANCH  31  33
ENDBRANCH  21  31
ENDBRANCH   1   3
BRANCH   1  36
ATOM     36  O   UNL     1      -3.170   0.469   0.000  1.00  0.00    -0.432 OA
BRANCH  36  37
ATOM     37  C   UNL     1      -4.529   1.103   0.000  1.00  0.00     0.342 C 
ATOM     38  O   UNL     1      -4.660   2.598   0.000  1.00  0.00    -0.332 OA
ATOM     39  C   UNL     1      -5.758   0.243   0.000  1.00  0.00     0.214 C 
ATOM     40  C   UNL     1      -6.019   3.232   0.000  1.00  0.00     0.179 C 
ATOM     41  C   UNL     1      -7.118   0.878   0.000  1.00  0.00     0.180 C 
ATOM     42  C   UNL     1      -7.248   2.372   0.000  1.00  0.00     0.177 C 
BRANCH  39  43
ATOM     43  O   UNL     1      -5.628  -1.251   0.000  1.00  0.00    -0.384 OA
ATOM     44  H   UNL     1       0.000   0.000   0.000  1.00  0.00     0.211 HD
ENDBRANCH  39  43
BRANCH  40  45
ATOM     45  C   UNL     1      -6.149   4.726   0.000  1.00  0.00     0.191 C 
BRANCH  45  46
ATOM     46  O   UNL     1      -4.920   5.586   0.000  1.00  0.00    -0.394 OA
ATOM     47  H   UNL     1       0.000   0.000   0.000  1.00  0.00     0.210 HD
ENDBRANCH  45  46
ENDBRANCH  40  45
BRANCH  41  48
ATOM     48  O   UNL     1      -8.347   0.018   0.000  1.00  0.00    -0.387 OA
ATOM     49  H   UNL     1       0.000   0.000   0.000  1.00  0.00     0.211 HD
ENDBRANCH  41  48
BRANCH  42  50
ATOM     50  O   UNL     1      -8.607   3.006   0.000  1.00  0.00    -0.387 OA
ATOM     51  H   UNL     1       0.000   0.000   0.000  1.00  0.00     0.211 HD
ENDBRANCH  42  50
ENDBRANCH  36  37
ENDBRANCH   1  36
TORSDOF 12
