REMARK SMILES COc1cc(C[C@@H](CO)[C@H](CO)Cc2ccc(OC)c(OC)c2)ccc1O
REMARK SMILES IDX 7 1 6 2 5 3 3 4 4 5 26 6 25 7 24 8 2 9 1 10 27 11 8 13 9 14
REMARK SMILES IDX 10 16 11 17 12 18 13 20 14 21 15 22 23 23 16 24 20 25 17 26
REMARK SMILES IDX 21 27 22 28 18 29 19 30
REMARK H PARENT 27 12 9 15 12 19
ROOT
ATOM      1  C   UNL     1       1.109   0.589   0.000  1.00  0.00     0.025 C 
ENDROOT
BRANCH   1   2
ATOM      2  C   UNL     1       2.164  -0.477   0.000  1.00  0.00     0.042 C 
BRANCH   2   3
ATOM      3  C   UNL     1       3.615  -0.096   0.000  1.00  0.00    -0.044 A 
ATOM      4  C   UNL     1       6.121  -0.782   0.000  1.00  0.00     0.160 A 
ATOM      5  C   UNL     1       4.670  -1.163   0.000  1.00  0.00     0.054 A 
ATOM      6  C   UNL     1       6.517   0.665   0.000  1.00  0.00     0.157 A 
ATOM      7  C   UNL     1       5.462   1.731   0.000  1.00  0.00     0.050 A 
ATOM      8  C   UNL     1       4.011   1.351   0.000  1.00  0.00     0.008 A 
BRANCH   4   9
ATOM      9  O   UNL     1       7.176  -1.848   0.000  1.00  0.00    -0.493 OA
ATOM     10  C   UNL     1       6.780  -3.295   0.000  1.00  0.00     0.278 C 
ENDBRANCH   4   9
BRANCH   6  11
ATOM     11  O   UNL     1       7.968   1.046   0.000  1.00  0.00    -0.504 OA
ATOM     12  H   UNL     1       0.000   0.000   0.000  1.00  0.00     0.293 HD
ENDBRANCH   6  11
ENDBRANCH   2   3
ENDBRANCH   1   2
BRANCH   1  13
ATOM     13  C   UNL     1       1.505   2.036   0.000  1.00  0.00     0.160 C 
BRANCH  13  14
ATOM     14  O   UNL     1       0.450   3.102   0.000  1.00  0.00    -0.396 OA
ATOM     15  H   UNL     1       0.000   0.000   0.000  1.00  0.00     0.210 HD
ENDBRANCH  13  14
ENDBRANCH   1  13
BRANCH   1  16
ATOM     16  C   UNL     1      -0.342   0.209   0.000  1.00  0.00     0.025 C 
BRANCH  16  17
ATOM     17  C   UNL     1      -0.738  -1.238   0.000  1.00  0.00     0.160 C 
BRANCH  17  18
ATOM     18  O   UNL     1      -2.189  -1.619   0.000  1.00  0.00    -0.396 OA
ATOM     19  H   UNL     1       0.000   0.000   0.000  1.00  0.00     0.210 HD
ENDBRANCH  17  18
ENDBRANCH  16  17
BRANCH  16  20
ATOM     20  C   UNL     1      -1.397   1.275   0.000  1.00  0.00     0.042 C 
BRANCH  20  21
ATOM     21  C   UNL     1      -2.848   0.894   0.000  1.00  0.00    -0.044 A 
ATOM     22  C   UNL     1      -3.903   1.961   0.000  1.00  0.00     0.008 A 
ATOM     23  C   UNL     1      -3.244  -0.552   0.000  1.00  0.00     0.054 A 
ATOM     24  C   UNL     1      -5.354   1.580   0.000  1.00  0.00     0.051 A 
ATOM     25  C   UNL     1      -4.695  -0.933   0.000  1.00  0.00     0.160 A 
ATOM     26  C   UNL     1      -5.750   0.133   0.000  1.00  0.00     0.160 A 
BRANCH  25  27
ATOM     27  O   UNL     1      -5.090  -2.380   0.000  1.00  0.00    -0.493 OA
ATOM     28  C   UNL     1      -6.541  -2.760   0.000  1.00  0.00     0.278 C 
ENDBRANCH  25  27
BRANCH  26  29
ATOM     29  O   UNL     1      -7.201  -0.247   0.000  1.00  0.00    -0.493 OA
ATOM     30  C   UNL     1      -8.256   0.819   0.000  1.00  0.00     0.278 C 
ENDBRANCH  26  29
ENDBRANCH  20  21
ENDBRANCH  16  20
ENDBRANCH   1  16
TORSDOF 13
