REMARK SMILES COC(=O)C1=CO[C@@H](O[C@@H]2O[C@H](CO)[C@@H](O)[C@H](O)[C@H]2O)[C@H]2[C@@H]1C=C[C@@]2(O)CO
REMARK SMILES IDX 9 1 8 2 5 3 6 4 22 5 7 6 21 7 23 8 25 9 24 10 3 11 4 12 2 13
REMARK SMILES IDX 1 14 26 15 27 17 28 18 10 20 11 21 19 22 12 23 17 24 15 25
REMARK SMILES IDX 20 26 13 28 14 29 18 31 16 33
REMARK H PARENT 26 16 28 19 20 27 14 30 18 32 16 34
ROOT
ATOM      1  O   UNL     1       0.878   1.169   0.000  1.00  0.00    -0.310 OA
ENDROOT
BRANCH   1   2
ATOM      2  C   UNL     1      -0.417   0.412   0.000  1.00  0.00     0.316 C 
ATOM      3  C   UNL     1      -3.007  -1.101   0.000  1.00  0.00     0.079 C 
ATOM      4  C   UNL     1      -1.705  -1.844   0.000  1.00  0.00     0.202 C 
ATOM      5  C   UNL     1      -3.015   0.399   0.000  1.00  0.00     0.065 C 
ATOM      6  O   UNL     1      -0.409  -1.088   0.000  1.00  0.00    -0.471 OA
ATOM      7  C   UNL     1      -1.720   1.156   0.000  1.00  0.00     0.108 C 
ATOM      8  C   UNL     1      -4.135   1.397   0.000  1.00  0.00    -0.019 C 
ATOM      9  C   UNL     1      -2.039   2.621   0.000  1.00  0.00     0.115 C 
ATOM     10  C   UNL     1      -3.531   2.771   0.000  1.00  0.00     0.007 C 
BRANCH   3  11
ATOM     11  C   UNL     1      -4.303  -1.857   0.000  1.00  0.00     0.337 C 
ATOM     12  O   UNL     1      -5.606  -1.114   0.000  1.00  0.00    -0.246 OA
BRANCH  11  13
ATOM     13  O   UNL     1      -4.295  -3.357   0.000  1.00  0.00    -0.466 OA
ATOM     14  C   UNL     1      -5.591  -4.114   0.000  1.00  0.00     0.282 C 
ENDBRANCH  11  13
ENDBRANCH   3  11
BRANCH   9  15
ATOM     15  O   UNL     1      -0.548   2.785   0.000  1.00  0.00    -0.383 OA
ATOM     16  H   UNL     1       0.000   0.000   0.000  1.00  0.00     0.211 HD
ENDBRANCH   9  15
BRANCH   9  17
ATOM     17  C   UNL     1      -2.046   4.121   0.000  1.00  0.00     0.196 C 
BRANCH  17  18
ATOM     18  O   UNL     1      -0.751   4.878   0.000  1.00  0.00    -0.393 OA
ATOM     19  H   UNL     1       0.000   0.000   0.000  1.00  0.00     0.210 HD
ENDBRANCH  17  18
ENDBRANCH   9  17
ENDBRANCH   1   2
BRANCH   1  20
ATOM     20  C   UNL     1       2.181   0.425   0.000  1.00  0.00     0.286 C 
ATOM     21  O   UNL     1       2.189  -1.075   0.000  1.00  0.00    -0.341 OA
ATOM     22  C   UNL     1       3.477   1.181   0.000  1.00  0.00     0.202 C 
ATOM     23  C   UNL     1       3.491  -1.819   0.000  1.00  0.00     0.178 C 
ATOM     24  C   UNL     1       4.779   0.438   0.000  1.00  0.00     0.179 C 
ATOM     25  C   UNL     1       4.787  -1.062   0.000  1.00  0.00     0.177 C 
BRANCH  22  26
ATOM     26  O   UNL     1       3.469   2.681   0.000  1.00  0.00    -0.385 OA
ATOM     27  H   UNL     1       0.000   0.000   0.000  1.00  0.00     0.211 HD
ENDBRANCH  22  26
BRANCH  23  28
ATOM     28  C   UNL     1       3.499  -3.318   0.000  1.00  0.00     0.191 C 
BRANCH  28  29
ATOM     29  O   UNL     1       2.204  -4.075   0.000  1.00  0.00    -0.394 OA
ATOM     30  H   UNL     1       0.000   0.000   0.000  1.00  0.00     0.210 HD
ENDBRANCH  28  29
ENDBRANCH  23  28
BRANCH  24  31
ATOM     31  O   UNL     1       6.074   1.194   0.000  1.00  0.00    -0.387 OA
ATOM     32  H   UNL     1       0.000   0.000   0.000  1.00  0.00     0.211 HD
ENDBRANCH  24  31
BRANCH  25  33
ATOM     33  O   UNL     1       6.089  -1.806   0.000  1.00  0.00    -0.387 OA
ATOM     34  H   UNL     1       0.000   0.000   0.000  1.00  0.00     0.211 HD
ENDBRANCH  25  33
ENDBRANCH   1  20
TORSDOF 12
