REMARK SMILES O=C1OC[C@H](Cc2ccc3c(c2)OCO3)[C@H]1Cc1ccc2c(c1)OCO2
REMARK SMILES IDX 1 1 2 2 3 3 4 4 5 5 16 6 17 7 18 8 19 9 23 10 20 11 22 12
REMARK SMILES IDX 21 13 24 14 26 15 25 16 6 17 7 18 8 19 12 20 9 21 11 22
REMARK SMILES IDX 10 23 13 24 15 25 14 26
REMARK H PARENT
ROOT
ATOM      1  O   UNL     1       2.736   2.866   0.000  1.00  0.00    -0.252 OA
ATOM      2  C   UNL     1       1.281   3.229   0.000  1.00  0.00     0.309 C 
ATOM      3  O   UNL     1       0.719   4.620   0.000  1.00  0.00    -0.465 OA
ATOM      4  C   UNL     1      -0.777   4.515   0.000  1.00  0.00     0.237 C 
ATOM      5  C   UNL     1      -1.140   3.060   0.000  1.00  0.00     0.046 C 
ATOM      6  C   UNL     1       0.132   2.265   0.000  1.00  0.00     0.110 C 
ENDROOT
BRANCH   6   7
ATOM      7  C   UNL     1       0.236   0.769   0.000  1.00  0.00     0.051 C 
BRANCH   7   8
ATOM      8  C   UNL     1       1.585   0.111   0.000  1.00  0.00    -0.043 A 
ATOM      9  C   UNL     1       2.828   0.950   0.000  1.00  0.00     0.008 A 
ATOM     10  C   UNL     1       1.689  -1.385   0.000  1.00  0.00     0.054 A 
ATOM     11  C   UNL     1       4.176   0.292   0.000  1.00  0.00     0.051 A 
ATOM     12  C   UNL     1       3.037  -2.043   0.000  1.00  0.00     0.166 A 
ATOM     13  C   UNL     1       4.281  -1.204   0.000  1.00  0.00     0.165 A 
ATOM     14  O   UNL     1       3.450  -3.485   0.000  1.00  0.00    -0.454 OA
ATOM     15  O   UNL     1       5.463  -2.128   0.000  1.00  0.00    -0.454 OA
ATOM     16  C   UNL     1       4.950  -3.538   0.000  1.00  0.00     0.468 C 
ENDBRANCH   7   8
ENDBRANCH   6   7
BRANCH   5  17
ATOM     17  C   UNL     1      -2.531   2.498   0.000  1.00  0.00     0.043 C 
BRANCH  17  18
ATOM     18  C   UNL     1      -2.740   1.013   0.000  1.00  0.00    -0.044 A 
ATOM     19  C   UNL     1      -1.558   0.089   0.000  1.00  0.00     0.008 A 
ATOM     20  C   UNL     1      -4.131   0.451   0.000  1.00  0.00     0.054 A 
ATOM     21  C   UNL     1      -1.767  -1.396   0.000  1.00  0.00     0.051 A 
ATOM     22  C   UNL     1      -4.340  -1.034   0.000  1.00  0.00     0.166 A 
ATOM     23  C   UNL     1      -3.158  -1.958   0.000  1.00  0.00     0.165 A 
ATOM     24  O   UNL     1      -5.583  -1.873   0.000  1.00  0.00    -0.454 OA
ATOM     25  O   UNL     1      -3.671  -3.367   0.000  1.00  0.00    -0.454 OA
ATOM     26  C   UNL     1      -5.170  -3.315   0.000  1.00  0.00     0.468 C 
ENDBRANCH  17  18
ENDBRANCH   5  17
TORSDOF 4
