REMARK SMILES COc1c(OC)c(OC)c2c(c1O)c(=O)c1cccc(O)c1n2C
REMARK SMILES IDX 3 1 4 2 7 3 10 4 11 5 12 6 14 7 15 8 16 9 17 10 18 11 19 12
REMARK SMILES IDX 20 13 22 14 23 15 24 16 2 17 1 18 5 19 6 20 13 21 8 23 9 24
REMARK SMILES IDX 21 25
REMARK H PARENT 13 22 21 26
ROOT
ATOM      1  C   UNL     1      -2.644  -1.264   0.000  1.00  0.00     0.207 A 
ATOM      2  C   UNL     1      -2.722   0.234   0.000  1.00  0.00     0.209 A 
ATOM      3  C   UNL     1      -1.464   1.051   0.000  1.00  0.00     0.189 A 
ATOM      4  C   UNL     1      -0.128   0.369   0.000  1.00  0.00     0.103 A 
ATOM      5  C   UNL     1      -0.050  -1.129   0.000  1.00  0.00     0.096 A 
ATOM      6  C   UNL     1      -1.308  -1.945   0.000  1.00  0.00     0.175 A 
ATOM      7  C   UNL     1       1.286  -1.811   0.000  1.00  0.00     0.201 A 
ATOM      8  O   UNL     1       1.364  -3.309   0.000  1.00  0.00    -0.288 OA
ATOM      9  C   UNL     1       2.545  -0.995   0.000  1.00  0.00     0.050 A 
ATOM     10  C   UNL     1       3.881  -1.677   0.000  1.00  0.00     0.014 A 
ATOM     11  C   UNL     1       5.139  -0.860   0.000  1.00  0.00     0.005 A 
ATOM     12  C   UNL     1       5.062   0.638   0.000  1.00  0.00     0.048 A 
ATOM     13  C   UNL     1       3.726   1.319   0.000  1.00  0.00     0.139 A 
ATOM     14  C   UNL     1       2.467   0.503   0.000  1.00  0.00     0.095 A 
ATOM     15  N   UNL     1       1.131   1.185   0.000  1.00  0.00    -0.337 N 
ATOM     16  C   UNL     1       1.053   2.683   0.000  1.00  0.00     0.150 C 
ENDROOT
BRANCH   1  17
ATOM     17  O   UNL     1      -3.903  -2.080   0.000  1.00  0.00    -0.490 OA
ATOM     18  C   UNL     1      -5.239  -1.398   0.000  1.00  0.00     0.278 C 
ENDBRANCH   1  17
BRANCH   2  19
ATOM     19  O   UNL     1      -4.058   0.916   0.000  1.00  0.00    -0.490 OA
ATOM     20  C   UNL     1      -4.136   2.414   0.000  1.00  0.00     0.278 C 
ENDBRANCH   2  19
BRANCH   6  21
ATOM     21  O   UNL     1      -1.231  -3.443   0.000  1.00  0.00    -0.504 OA
ATOM     22  H   UNL     1       0.000   0.000   0.000  1.00  0.00     0.293 HD
ENDBRANCH   6  21
BRANCH   3  23
ATOM     23  O   UNL     1      -1.541   2.549   0.000  1.00  0.00    -0.491 OA
ATOM     24  C   UNL     1      -2.877   3.231   0.000  1.00  0.00     0.278 C 
ENDBRANCH   3  23
BRANCH  13  25
ATOM     25  O   UNL     1       3.648   2.817   0.000  1.00  0.00    -0.506 OA
ATOM     26  H   UNL     1       0.000   0.000   0.000  1.00  0.00     0.293 HD
ENDBRANCH  13  25
TORSDOF 5
