REMARK SMILES COc1ccc(-c2cc3cc(CCCO)cc(OC)c3o2)cc1OC
REMARK SMILES IDX 12 1 11 2 7 3 8 4 21 5 9 6 20 7 10 8 17 9 16 10 6 11 3 12
REMARK SMILES IDX 4 13 23 14 5 15 22 16 2 17 1 18 24 19 25 20 18 21 19 22
REMARK SMILES IDX 13 23 14 24 15 25
REMARK H PARENT 15 26
ROOT
ATOM      1  C   UNL     1      -5.290  -1.456   0.000  1.00  0.00     0.038 C 
ENDROOT
BRANCH   1   2
ATOM      2  C   UNL     1      -3.945  -0.792   0.000  1.00  0.00    -0.043 A 
ATOM      3  C   UNL     1       1.000  -0.364   0.000  1.00  0.00     0.135 A 
ATOM      4  C   UNL     1       0.041  -1.517   0.000  1.00  0.00     0.060 A 
ATOM      5  O   UNL     1       0.199   0.905   0.000  1.00  0.00    -0.452 OA
ATOM      6  C   UNL     1      -1.352  -0.962   0.000  1.00  0.00     0.025 A 
ATOM      7  C   UNL     1      -1.255   0.535   0.000  1.00  0.00     0.176 A 
ATOM      8  C   UNL     1      -2.698  -1.625   0.000  1.00  0.00     0.016 A 
ATOM      9  C   UNL     1      -2.502   1.368   0.000  1.00  0.00     0.162 A 
ATOM     10  C   UNL     1      -3.847   0.705   0.000  1.00  0.00     0.054 A 
BRANCH   3  11
ATOM     11  C   UNL     1       2.497  -0.462   0.000  1.00  0.00     0.021 A 
ATOM     12  C   UNL     1       5.490  -0.657   0.000  1.00  0.00     0.160 A 
ATOM     13  C   UNL     1       4.657  -1.905   0.000  1.00  0.00     0.051 A 
ATOM     14  C   UNL     1       4.827   0.688   0.000  1.00  0.00     0.161 A 
ATOM     15  C   UNL     1       3.160  -1.807   0.000  1.00  0.00     0.016 A 
ATOM     16  C   UNL     1       3.330   0.786   0.000  1.00  0.00     0.062 A 
BRANCH  12  17
ATOM     17  O   UNL     1       6.987  -0.755   0.000  1.00  0.00    -0.493 OA
ATOM     18  C   UNL     1       7.651  -2.100   0.000  1.00  0.00     0.278 C 
ENDBRANCH  12  17
BRANCH  14  19
ATOM     19  O   UNL     1       5.660   1.935   0.000  1.00  0.00    -0.493 OA
ATOM     20  C   UNL     1       4.996   3.280   0.000  1.00  0.00     0.278 C 
ENDBRANCH  14  19
ENDBRANCH   3  11
BRANCH   9  21
ATOM     21  O   UNL     1      -2.404   2.865   0.000  1.00  0.00    -0.493 OA
ATOM     22  C   UNL     1      -3.651   3.698   0.000  1.00  0.00     0.278 C 
ENDBRANCH   9  21
ENDBRANCH   1   2
BRANCH   1  23
ATOM     23  C   UNL     1      -6.537  -0.623   0.000  1.00  0.00     0.033 C 
BRANCH  23  24
ATOM     24  C   UNL     1      -7.883  -1.286   0.000  1.00  0.00     0.156 C 
BRANCH  24  25
ATOM     25  O   UNL     1      -9.130  -0.453   0.000  1.00  0.00    -0.396 OA
ATOM     26  H   UNL     1       0.000   0.000   0.000  1.00  0.00     0.210 HD
ENDBRANCH  24  25
ENDBRANCH  23  24
ENDBRANCH   1  23
TORSDOF 8
