REMARK SMILES COc1ccc([C@@H]2COc3cc(O)ccc3C2)c(O)c1
REMARK SMILES IDX 7 1 8 2 9 3 10 4 11 5 12 6 14 7 15 8 16 9 17 10 6 11 3 12
REMARK SMILES IDX 4 13 20 14 5 15 18 16 2 17 1 18 19 19 13 21
REMARK H PARENT 19 20 13 22
ROOT
ATOM      1  C   UNL     1      -0.075  -0.318   0.000  1.00  0.00     0.065 C 
ATOM      2  C   UNL     1       0.518  -1.696   0.000  1.00  0.00     0.238 C 
ATOM      3  O   UNL     1       2.007  -1.872   0.000  1.00  0.00    -0.493 OA
ATOM      4  C   UNL     1       2.904  -0.669   0.000  1.00  0.00     0.126 A 
ATOM      5  C   UNL     1       4.394  -0.845   0.000  1.00  0.00     0.092 A 
ATOM      6  C   UNL     1       5.291   0.358   0.000  1.00  0.00     0.119 A 
ATOM      7  C   UNL     1       4.698   1.736   0.000  1.00  0.00     0.047 A 
ATOM      8  C   UNL     1       3.208   1.911   0.000  1.00  0.00     0.011 A 
ATOM      9  C   UNL     1       2.311   0.709   0.000  1.00  0.00    -0.005 A 
ATOM     10  C   UNL     1       0.822   0.884   0.000  1.00  0.00     0.051 C 
ENDROOT
BRANCH   1  11
ATOM     11  C   UNL     1      -1.565  -0.143   0.000  1.00  0.00     0.001 A 
ATOM     12  C   UNL     1      -4.544   0.208   0.000  1.00  0.00     0.122 A 
ATOM     13  C   UNL     1      -3.647   1.411   0.000  1.00  0.00     0.047 A 
ATOM     14  C   UNL     1      -3.951  -1.169   0.000  1.00  0.00     0.092 A 
ATOM     15  C   UNL     1      -2.158   1.235   0.000  1.00  0.00     0.012 A 
ATOM     16  C   UNL     1      -2.462  -1.345   0.000  1.00  0.00     0.122 A 
BRANCH  12  17
ATOM     17  O   UNL     1      -6.034   0.384   0.000  1.00  0.00    -0.497 OA
ATOM     18  C   UNL     1      -6.627   1.762   0.000  1.00  0.00     0.278 C 
ENDBRANCH  12  17
BRANCH  16  19
ATOM     19  O   UNL     1      -1.869  -2.723   0.000  1.00  0.00    -0.508 OA
ATOM     20  H   UNL     1       0.000   0.000   0.000  1.00  0.00     0.293 HD
ENDBRANCH  16  19
ENDBRANCH   1  11
BRANCH   6  21
ATOM     21  O   UNL     1       6.780   0.182   0.000  1.00  0.00    -0.508 OA
ATOM     22  H   UNL     1       0.000   0.000   0.000  1.00  0.00     0.293 HD
ENDBRANCH   6  21
TORSDOF 4
