REMARK SMILES CCCc1ccc2ccccc2n1
REMARK SMILES IDX 1 1 2 2 3 3 4 4 5 5 13 6 6 7 12 8 7 9 11 10 8 11 10 12 9 13
REMARK H PARENT
ROOT
ATOM      1  C   UNL     1      -5.134   0.980   0.000  1.00  0.00     0.004 C 
ATOM      2  C   UNL     1      -3.638   0.870   0.000  1.00  0.00     0.003 C 
ENDROOT
BRANCH   2   3
ATOM      3  C   UNL     1      -2.986  -0.481   0.000  1.00  0.00     0.056 C 
BRANCH   3   4
ATOM      4  C   UNL     1      -1.490  -0.591   0.000  1.00  0.00     0.041 A 
ATOM      5  C   UNL     1      -0.838  -1.942   0.000  1.00  0.00     0.024 A 
ATOM      6  N   UNL     1      -0.646   0.649   0.000  1.00  0.00    -0.253 NA
ATOM      7  C   UNL     1       0.658  -2.053   0.000  1.00  0.00     0.012 A 
ATOM      8  C   UNL     1       0.850   0.538   0.000  1.00  0.00     0.070 A 
ATOM      9  C   UNL     1       1.502  -0.812   0.000  1.00  0.00     0.000 A 
ATOM     10  C   UNL     1       1.693   1.779   0.000  1.00  0.00     0.029 A 
ATOM     11  C   UNL     1       2.998  -0.923   0.000  1.00  0.00     0.010 A 
ATOM     12  C   UNL     1       3.189   1.668   0.000  1.00  0.00     0.002 A 
ATOM     13  C   UNL     1       3.841   0.318   0.000  1.00  0.00     0.001 A 
ENDBRANCH   3   4
ENDBRANCH   2   3
TORSDOF 2
