REMARK SMILES CC(C)=CCCC(C)=CCCC(C)=CCCC(C)=CCc1cc(O)cc2c1OC(=O)C2
REMARK SMILES IDX 12 1 13 2 11 3 10 4 9 5 7 6 8 7 6 8 5 9 4 10 2 11 1 12 3 13
REMARK SMILES IDX 14 14 15 15 16 16 17 17 18 18 19 19 20 20 21 21 22 22 27 23
REMARK SMILES IDX 23 24 26 25 28 26 25 27 31 28 29 29 30 30 24 31
REMARK H PARENT 24 32
ROOT
ATOM      1  C   UNL     1       2.323  -0.984   0.000  1.00  0.00    -0.077 C 
ATOM      2  C   UNL     1       3.041  -2.301   0.000  1.00  0.00     0.039 C 
ENDROOT
BRANCH   1   3
ATOM      3  C   UNL     1       3.105   0.296   0.000  1.00  0.00     0.034 C 
BRANCH   3   4
ATOM      4  C   UNL     1       4.605   0.259   0.000  1.00  0.00     0.032 C 
BRANCH   4   5
ATOM      5  C   UNL     1       5.386   1.540   0.000  1.00  0.00    -0.028 C 
BRANCH   5   6
ATOM      6  C   UNL     1       6.886   1.502   0.000  1.00  0.00    -0.077 C 
ATOM      7  C   UNL     1       7.668   2.783   0.000  1.00  0.00     0.039 C 
BRANCH   6   8
ATOM      8  C   UNL     1       7.604   0.185   0.000  1.00  0.00     0.034 C 
BRANCH   8   9
ATOM      9  C   UNL     1       9.103   0.148   0.000  1.00  0.00     0.032 C 
BRANCH   9  10
ATOM     10  C   UNL     1       9.821  -1.169   0.000  1.00  0.00    -0.028 C 
BRANCH  10  11
ATOM     11  C   UNL     1      11.320  -1.206   0.000  1.00  0.00    -0.080 C 
ATOM     12  C   UNL     1      12.038  -2.523   0.000  1.00  0.00     0.039 C 
ATOM     13  C   UNL     1      12.102   0.074   0.000  1.00  0.00     0.039 C 
ENDBRANCH  10  11
ENDBRANCH   9  10
ENDBRANCH   8   9
ENDBRANCH   6   8
ENDBRANCH   5   6
ENDBRANCH   4   5
ENDBRANCH   3   4
ENDBRANCH   1   3
BRANCH   1  14
ATOM     14  C   UNL     1       0.824  -0.947   0.000  1.00  0.00    -0.028 C 
BRANCH  14  15
ATOM     15  C   UNL     1       0.106   0.371   0.000  1.00  0.00     0.032 C 
BRANCH  15  16
ATOM     16  C   UNL     1      -1.394   0.408   0.000  1.00  0.00     0.034 C 
BRANCH  16  17
ATOM     17  C   UNL     1      -2.111   1.725   0.000  1.00  0.00    -0.077 C 
ATOM     18  C   UNL     1      -1.329   3.005   0.000  1.00  0.00     0.039 C 
BRANCH  17  19
ATOM     19  C   UNL     1      -3.611   1.762   0.000  1.00  0.00    -0.023 C 
BRANCH  19  20
ATOM     20  C   UNL     1      -4.393   0.482   0.000  1.00  0.00     0.067 C 
BRANCH  20  21
ATOM     21  C   UNL     1      -5.892   0.519   0.000  1.00  0.00     0.003 A 
ATOM     22  C   UNL     1      -6.610   1.836   0.000  1.00  0.00     0.054 A 
ATOM     23  C   UNL     1      -6.674  -0.761   0.000  1.00  0.00     0.138 A 
ATOM     24  C   UNL     1      -8.109   1.873   0.000  1.00  0.00     0.116 A 
ATOM     25  C   UNL     1      -8.174  -0.724   0.000  1.00  0.00     0.010 A 
ATOM     26  O   UNL     1      -6.246  -2.199   0.000  1.00  0.00    -0.426 OA
ATOM     27  C   UNL     1      -8.891   0.593   0.000  1.00  0.00     0.054 A 
ATOM     28  C   UNL     1      -8.672  -2.139   0.000  1.00  0.00     0.162 C 
ATOM     29  C   UNL     1      -7.481  -3.050   0.000  1.00  0.00     0.315 C 
ATOM     30  O   UNL     1      -7.518  -4.550   0.000  1.00  0.00    -0.251 OA
BRANCH  24  31
ATOM     31  O   UNL     1      -8.827   3.191   0.000  1.00  0.00    -0.508 OA
ATOM     32  H   UNL     1       0.000   0.000   0.000  1.00  0.00     0.293 HD
ENDBRANCH  24  31
ENDBRANCH  20  21
ENDBRANCH  19  20
ENDBRANCH  17  19
ENDBRANCH  16  17
ENDBRANCH  15  16
ENDBRANCH  14  15
ENDBRANCH   1  14
TORSDOF 16
