REMARK SMILES c1ccc2nc(CCc3ccc4c(c3)OCO4)ccc2c1
REMARK SMILES IDX 7 1 6 2 1 3 2 4 21 5 3 6 20 7 4 8 19 9 5 10 18 11 8 12 9 13
REMARK SMILES IDX 10 14 14 15 11 16 13 17 12 18 15 19 17 20 16 21
REMARK H PARENT
ROOT
ATOM      1  C   UNL     1      -0.203   0.487   0.000  1.00  0.00     0.061 C 
ENDROOT
BRANCH   1   2
ATOM      2  C   UNL     1      -1.638   0.050   0.000  1.00  0.00     0.041 A 
ATOM      3  C   UNL     1      -7.038  -0.237   0.000  1.00  0.00     0.001 A 
ATOM      4  C   UNL     1      -6.700   1.224   0.000  1.00  0.00     0.002 A 
ATOM      5  C   UNL     1      -5.942  -1.262   0.000  1.00  0.00     0.010 A 
ATOM      6  C   UNL     1      -5.265   1.661   0.000  1.00  0.00     0.029 A 
ATOM      7  C   UNL     1      -4.508  -0.825   0.000  1.00  0.00     0.000 A 
ATOM      8  C   UNL     1      -4.169   0.637   0.000  1.00  0.00     0.070 A 
ATOM      9  C   UNL     1      -3.412  -1.849   0.000  1.00  0.00     0.012 A 
ATOM     10  N   UNL     1      -2.734   1.074   0.000  1.00  0.00    -0.253 NA
ATOM     11  C   UNL     1      -1.977  -1.411   0.000  1.00  0.00     0.024 A 
ENDBRANCH   1   2
BRANCH   1  12
ATOM     12  C   UNL     1       0.893  -0.537   0.000  1.00  0.00     0.042 C 
BRANCH  12  13
ATOM     13  C   UNL     1       2.328  -0.100   0.000  1.00  0.00    -0.044 A 
ATOM     14  C   UNL     1       2.667   1.361   0.000  1.00  0.00     0.008 A 
ATOM     15  C   UNL     1       3.424  -1.124   0.000  1.00  0.00     0.054 A 
ATOM     16  C   UNL     1       4.102   1.798   0.000  1.00  0.00     0.051 A 
ATOM     17  C   UNL     1       4.859  -0.687   0.000  1.00  0.00     0.166 A 
ATOM     18  C   UNL     1       5.198   0.774   0.000  1.00  0.00     0.165 A 
ATOM     19  O   UNL     1       6.144  -1.461   0.000  1.00  0.00    -0.454 OA
ATOM     20  O   UNL     1       6.692   0.904   0.000  1.00  0.00    -0.454 OA
ATOM     21  C   UNL     1       7.277  -0.478   0.000  1.00  0.00     0.468 C 
ENDBRANCH  12  13
ENDBRANCH   1  12
TORSDOF 3
