REMARK SMILES O=C(O)c1ccccc1O
REMARK SMILES IDX 4 1 5 2 6 3 7 4 8 5 9 6 2 7 1 8 3 9 10 11
REMARK H PARENT 3 10 10 12
ROOT
ATOM      1  C   UNL     1       0.287  -0.275   0.000  1.00  0.00     0.101 A 
ATOM      2  C   UNL     1      -0.527  -1.534   0.000  1.00  0.00     0.019 A 
ATOM      3  C   UNL     1      -2.026  -1.459   0.000  1.00  0.00     0.001 A 
ATOM      4  C   UNL     1      -2.710  -0.124   0.000  1.00  0.00     0.004 A 
ATOM      5  C   UNL     1      -1.896   1.135   0.000  1.00  0.00     0.047 A 
ATOM      6  C   UNL     1      -0.398   1.060   0.000  1.00  0.00     0.130 A 
ENDROOT
BRANCH   1   7
ATOM      7  C   UNL     1       1.785  -0.349   0.000  1.00  0.00     0.339 C 
ATOM      8  O   UNL     1       2.599   0.910   0.000  1.00  0.00    -0.246 OA
BRANCH   7   9
ATOM      9  O   UNL     1       2.469  -1.684   0.000  1.00  0.00    -0.478 OA
ATOM     10  H   UNL     1       0.000   0.000   0.000  1.00  0.00     0.297 HD
ENDBRANCH   7   9
ENDBRANCH   1   7
BRANCH   6  11
ATOM     11  O   UNL     1       0.417   2.320   0.000  1.00  0.00    -0.507 OA
ATOM     12  H   UNL     1       0.000   0.000   0.000  1.00  0.00     0.293 HD
ENDBRANCH   6  11
TORSDOF 3
