REMARK SMILES COc1cc(OC)c2c(=O)c(O)c(-c3cc(OC)c(OC)c(OC)c3)oc2c1
REMARK SMILES IDX 3 1 4 2 5 3 8 4 9 5 10 6 11 7 13 8 26 9 27 10 28 11 2 12
REMARK SMILES IDX 1 13 6 14 7 15 14 16 15 17 25 18 16 19 22 20 19 21 17 22
REMARK SMILES IDX 18 23 23 24 24 25 20 26 21 27 12 28
REMARK H PARENT 12 29
ROOT
ATOM      1  C   UNL     1      -4.619  -1.690   0.000  1.00  0.00     0.126 A 
ATOM      2  C   UNL     1      -5.149  -0.287   0.000  1.00  0.00     0.093 A 
ATOM      3  C   UNL     1      -4.200   0.874   0.000  1.00  0.00     0.137 A 
ATOM      4  C   UNL     1      -2.719   0.632   0.000  1.00  0.00     0.111 A 
ATOM      5  C   UNL     1      -1.770   1.793   0.000  1.00  0.00     0.238 A 
ATOM      6  O   UNL     1      -2.300   3.196   0.000  1.00  0.00    -0.285 OA
ATOM      7  C   UNL     1      -0.289   1.552   0.000  1.00  0.00     0.208 A 
ATOM      8  C   UNL     1       0.241   0.149   0.000  1.00  0.00     0.180 A 
ATOM      9  O   UNL     1      -0.708  -1.012   0.000  1.00  0.00    -0.452 OA
ATOM     10  C   UNL     1      -2.189  -0.771   0.000  1.00  0.00     0.146 A 
ATOM     11  C   UNL     1      -3.138  -1.932   0.000  1.00  0.00     0.094 A 
ENDROOT
BRANCH   1  12
ATOM     12  O   UNL     1      -5.568  -2.851   0.000  1.00  0.00    -0.496 OA
ATOM     13  C   UNL     1      -7.049  -2.609   0.000  1.00  0.00     0.278 C 
ENDBRANCH   1  12
BRANCH   3  14
ATOM     14  O   UNL     1      -4.731   2.277   0.000  1.00  0.00    -0.496 OA
ATOM     15  C   UNL     1      -6.211   2.519   0.000  1.00  0.00     0.278 C 
ENDBRANCH   3  14
BRANCH   8  16
ATOM     16  C   UNL     1       1.722  -0.093   0.000  1.00  0.00     0.029 A 
ATOM     17  C   UNL     1       2.252  -1.496   0.000  1.00  0.00     0.062 A 
ATOM     18  C   UNL     1       2.671   1.068   0.000  1.00  0.00     0.062 A 
ATOM     19  C   UNL     1       3.733  -1.738   0.000  1.00  0.00     0.165 A 
ATOM     20  C   UNL     1       4.152   0.826   0.000  1.00  0.00     0.165 A 
ATOM     21  C   UNL     1       4.683  -0.577   0.000  1.00  0.00     0.203 A 
BRANCH  19  22
ATOM     22  O   UNL     1       4.264  -3.141   0.000  1.00  0.00    -0.493 OA
ATOM     23  C   UNL     1       3.314  -4.302   0.000  1.00  0.00     0.278 C 
ENDBRANCH  19  22
BRANCH  20  24
ATOM     24  O   UNL     1       5.101   1.987   0.000  1.00  0.00    -0.493 OA
ATOM     25  C   UNL     1       4.571   3.390   0.000  1.00  0.00     0.278 C 
ENDBRANCH  20  24
BRANCH  21  26
ATOM     26  O   UNL     1       6.163  -0.819   0.000  1.00  0.00    -0.490 OA
ATOM     27  C   UNL     1       7.112   0.343   0.000  1.00  0.00     0.278 C 
ENDBRANCH  21  26
ENDBRANCH   8  16
BRANCH   7  28
ATOM     28  O   UNL     1       0.660   2.713   0.000  1.00  0.00    -0.502 OA
ATOM     29  H   UNL     1       0.000   0.000   0.000  1.00  0.00     0.293 HD
ENDBRANCH   7  28
TORSDOF 7
