REMARK SMILES CC(=O)Oc1ccc([C@H]2c3cc(OC(C)=O)ccc3C[C@@H](C)[C@@H]2C)cc1
REMARK SMILES IDX 9 1 10 2 11 3 12 4 17 5 18 6 19 7 20 8 21 9 22 10 23 11
REMARK SMILES IDX 24 12 8 13 5 14 6 15 26 16 7 17 25 18 4 19 2 20 1 21 3 22
REMARK SMILES IDX 13 23 14 24 15 25 16 26
REMARK H PARENT
ROOT
ATOM      1  C   UNL     1       0.824   1.319   0.000  1.00  0.00     0.053 C 
ATOM      2  C   UNL     1       2.017   0.410   0.000  1.00  0.00    -0.033 A 
ATOM      3  C   UNL     1       1.826  -1.078   0.000  1.00  0.00     0.051 A 
ATOM      4  C   UNL     1       3.019  -1.987   0.000  1.00  0.00     0.131 A 
ATOM      5  C   UNL     1       4.403  -1.409   0.000  1.00  0.00     0.047 A 
ATOM      6  C   UNL     1       4.594   0.079   0.000  1.00  0.00     0.008 A 
ATOM      7  C   UNL     1       3.401   0.988   0.000  1.00  0.00    -0.044 A 
ATOM      8  C   UNL     1       3.592   2.476   0.000  1.00  0.00     0.039 C 
ATOM      9  C   UNL     1       2.399   3.385   0.000  1.00  0.00    -0.006 C 
ATOM     10  C   UNL     1       2.590   4.873   0.000  1.00  0.00     0.008 C 
ATOM     11  C   UNL     1       1.015   2.807   0.000  1.00  0.00     0.001 C 
ATOM     12  C   UNL     1      -0.177   3.716   0.000  1.00  0.00     0.009 C 
ENDROOT
BRANCH   1  13
ATOM     13  C   UNL     1      -0.560   0.741   0.000  1.00  0.00    -0.040 A 
ATOM     14  C   UNL     1      -3.328  -0.416   0.000  1.00  0.00     0.130 A 
ATOM     15  C   UNL     1      -3.137   1.072   0.000  1.00  0.00     0.047 A 
ATOM     16  C   UNL     1      -2.135  -1.325   0.000  1.00  0.00     0.047 A 
ATOM     17  C   UNL     1      -1.753   1.650   0.000  1.00  0.00     0.008 A 
ATOM     18  C   UNL     1      -0.751  -0.747   0.000  1.00  0.00     0.008 A 
BRANCH  14  19
ATOM     19  O   UNL     1      -4.712  -0.994   0.000  1.00  0.00    -0.427 OA
BRANCH  19  20
ATOM     20  C   UNL     1      -5.905  -0.085   0.000  1.00  0.00     0.308 C 
ATOM     21  C   UNL     1      -7.289  -0.663   0.000  1.00  0.00     0.139 C 
ATOM     22  O   UNL     1      -5.713   1.403   0.000  1.00  0.00    -0.252 OA
ENDBRANCH  19  20
ENDBRANCH  14  19
ENDBRANCH   1  13
BRANCH   4  23
ATOM     23  O   UNL     1       2.828  -3.475   0.000  1.00  0.00    -0.427 OA
BRANCH  23  24
ATOM     24  C   UNL     1       1.444  -4.053   0.000  1.00  0.00     0.308 C 
ATOM     25  C   UNL     1       1.253  -5.541   0.000  1.00  0.00     0.139 C 
ATOM     26  O   UNL     1       0.251  -3.144   0.000  1.00  0.00    -0.252 OA
ENDBRANCH  23  24
ENDBRANCH   4  23
TORSDOF 5
