REMARK SMILES CC(C)=CCCC(C)=CCCC(C)=CCCC=C(C)CCC=C(C)CCC=C(C)C
REMARK SMILES IDX 15 1 14 2 12 3 13 4 11 5 10 6 9 7 7 8 8 9 6 10 5 11 4 12
REMARK SMILES IDX 2 13 1 14 3 15 16 16 17 17 18 18 19 19 20 20 21 21 22 22
REMARK SMILES IDX 23 23 24 24 25 25 26 26 27 27 28 28 29 29 30 30
REMARK H PARENT
ROOT
ATOM      1  C   UNL     1      -0.813  -3.188   0.000  1.00  0.00     0.031 C 
ENDROOT
BRANCH   1   2
ATOM      2  C   UNL     1      -2.072  -2.373   0.000  1.00  0.00    -0.028 C 
BRANCH   2   3
ATOM      3  C   UNL     1      -3.408  -3.056   0.000  1.00  0.00    -0.077 C 
ATOM      4  C   UNL     1      -3.484  -4.554   0.000  1.00  0.00     0.039 C 
BRANCH   3   5
ATOM      5  C   UNL     1      -4.667  -2.240   0.000  1.00  0.00     0.034 C 
BRANCH   5   6
ATOM      6  C   UNL     1      -4.590  -0.742   0.000  1.00  0.00     0.032 C 
BRANCH   6   7
ATOM      7  C   UNL     1      -5.849   0.073   0.000  1.00  0.00    -0.028 C 
BRANCH   7   8
ATOM      8  C   UNL     1      -5.773   1.571   0.000  1.00  0.00    -0.077 C 
ATOM      9  C   UNL     1      -4.438   2.254   0.000  1.00  0.00     0.039 C 
BRANCH   8  10
ATOM     10  C   UNL     1      -7.032   2.386   0.000  1.00  0.00     0.034 C 
BRANCH  10  11
ATOM     11  C   UNL     1      -8.368   1.703   0.000  1.00  0.00     0.032 C 
BRANCH  11  12
ATOM     12  C   UNL     1      -9.627   2.518   0.000  1.00  0.00    -0.028 C 
BRANCH  12  13
ATOM     13  C   UNL     1     -10.963   1.835   0.000  1.00  0.00    -0.080 C 
ATOM     14  C   UNL     1     -12.222   2.650   0.000  1.00  0.00     0.039 C 
ATOM     15  C   UNL     1     -11.039   0.337   0.000  1.00  0.00     0.039 C 
ENDBRANCH  12  13
ENDBRANCH  11  12
ENDBRANCH  10  11
ENDBRANCH   8  10
ENDBRANCH   7   8
ENDBRANCH   6   7
ENDBRANCH   5   6
ENDBRANCH   3   5
ENDBRANCH   2   3
ENDBRANCH   1   2
BRANCH   1  16
ATOM     16  C   UNL     1       0.523  -2.505   0.000  1.00  0.00     0.031 C 
BRANCH  16  17
ATOM     17  C   UNL     1       1.782  -3.320   0.000  1.00  0.00    -0.028 C 
BRANCH  17  18
ATOM     18  C   UNL     1       3.117  -2.637   0.000  1.00  0.00    -0.077 C 
ATOM     19  C   UNL     1       4.377  -3.452   0.000  1.00  0.00     0.039 C 
BRANCH  18  20
ATOM     20  C   UNL     1       3.194  -1.139   0.000  1.00  0.00     0.034 C 
BRANCH  20  21
ATOM     21  C   UNL     1       4.529  -0.456   0.000  1.00  0.00     0.032 C 
BRANCH  21  22
ATOM     22  C   UNL     1       4.606   1.042   0.000  1.00  0.00    -0.028 C 
BRANCH  22  23
ATOM     23  C   UNL     1       5.941   1.725   0.000  1.00  0.00    -0.077 C 
ATOM     24  C   UNL     1       6.018   3.223   0.000  1.00  0.00     0.039 C 
BRANCH  23  25
ATOM     25  C   UNL     1       7.200   0.910   0.000  1.00  0.00     0.034 C 
BRANCH  25  26
ATOM     26  C   UNL     1       8.536   1.593   0.000  1.00  0.00     0.032 C 
BRANCH  26  27
ATOM     27  C   UNL     1       9.795   0.778   0.000  1.00  0.00    -0.028 C 
BRANCH  27  28
ATOM     28  C   UNL     1      11.131   1.460   0.000  1.00  0.00    -0.080 C 
ATOM     29  C   UNL     1      12.390   0.645   0.000  1.00  0.00     0.039 C 
ATOM     30  C   UNL     1      11.207   2.959   0.000  1.00  0.00     0.039 C 
ENDBRANCH  27  28
ENDBRANCH  26  27
ENDBRANCH  25  26
ENDBRANCH  23  25
ENDBRANCH  22  23
ENDBRANCH  21  22
ENDBRANCH  20  21
ENDBRANCH  18  20
ENDBRANCH  17  18
ENDBRANCH  16  17
ENDBRANCH   1  16
TORSDOF 21
