REMARK SMILES C[C@@H]1O[C@H](O[C@H]2CC[C@]3(C)[C@H]4CC=C5[C@@H]6CC(C)(C)CC[C@]6(C(=O)O)CC[C@@]5(C(=O)O)[C@]4(C)CC[C@H]3C2(C)C)[C@@H](O)[C@H](O)[C@H]1O
REMARK SMILES IDX 6 1 7 2 8 3 9 4 10 5 11 6 12 7 13 8 14 9 15 10 16 11 17 12
REMARK SMILES IDX 18 13 19 14 20 15 21 16 22 17 26 18 27 19 28 20 32 21 33 22
REMARK SMILES IDX 34 23 35 24 36 25 37 26 38 27 39 28 5 29 4 30 2 31 3 32
REMARK SMILES IDX 44 33 42 34 40 35 1 36 45 37 43 39 41 41 29 43 30 44 31 45
REMARK SMILES IDX 23 47 24 48 25 49
REMARK H PARENT 45 38 43 40 41 42 31 46 25 50
ROOT
ATOM      1  C   UNL     1      -3.924   1.191   0.000  1.00  0.00     0.127 C 
ATOM      2  C   UNL     1      -3.489  -0.244   0.000  1.00  0.00     0.033 C 
ATOM      3  C   UNL     1      -2.029  -0.586   0.000  1.00  0.00     0.010 C 
ATOM      4  C   UNL     1      -1.002   0.509   0.000  1.00  0.00    -0.025 C 
ATOM      5  C   UNL     1      -0.568  -0.927   0.000  1.00  0.00     0.012 C 
ATOM      6  C   UNL     1       0.458   0.167   0.000  1.00  0.00     0.006 C 
ATOM      7  C   UNL     1       0.893  -1.268   0.000  1.00  0.00     0.032 C 
ATOM      8  C   UNL     1       2.353  -1.610   0.000  1.00  0.00    -0.026 C 
ATOM      9  C   UNL     1       3.379  -0.515   0.000  1.00  0.00    -0.052 C 
ATOM     10  C   UNL     1       4.840  -0.857   0.000  1.00  0.00     0.034 C 
ATOM     11  C   UNL     1       5.275  -2.292   0.000  1.00  0.00     0.015 C 
ATOM     12  C   UNL     1       6.735  -2.634   0.000  1.00  0.00    -0.035 C 
ATOM     13  C   UNL     1       7.991  -3.454   0.000  1.00  0.00     0.011 C 
ATOM     14  C   UNL     1       6.146  -4.013   0.000  1.00  0.00     0.011 C 
ATOM     15  C   UNL     1       7.761  -1.539   0.000  1.00  0.00     0.007 C 
ATOM     16  C   UNL     1       7.327  -0.104   0.000  1.00  0.00     0.020 C 
ATOM     17  C   UNL     1       5.866   0.238   0.000  1.00  0.00     0.074 C 
ATOM     18  C   UNL     1       5.431   1.673   0.000  1.00  0.00     0.021 C 
ATOM     19  C   UNL     1       3.971   2.015   0.000  1.00  0.00     0.025 C 
ATOM     20  C   UNL     1       2.945   0.920   0.000  1.00  0.00     0.095 C 
ATOM     21  C   UNL     1       1.484   1.262   0.000  1.00  0.00    -0.009 C 
ATOM     22  C   UNL     1       2.510   2.356   0.000  1.00  0.00     0.013 C 
ATOM     23  C   UNL     1       1.049   2.697   0.000  1.00  0.00     0.009 C 
ATOM     24  C   UNL     1      -0.411   3.039   0.000  1.00  0.00     0.005 C 
ATOM     25  C   UNL     1      -1.437   1.944   0.000  1.00  0.00     0.003 C 
ATOM     26  C   UNL     1      -2.898   2.286   0.000  1.00  0.00    -0.006 C 
ATOM     27  C   UNL     1      -4.154   3.106   0.000  1.00  0.00     0.014 C 
ATOM     28  C   UNL     1      -2.308   3.665   0.000  1.00  0.00     0.014 C 
ENDROOT
BRANCH   1  29
ATOM     29  O   UNL     1      -5.385   1.533   0.000  1.00  0.00    -0.346 OA
BRANCH  29  30
ATOM     30  C   UNL     1      -6.410   0.439   0.000  1.00  0.00     0.282 C 
ATOM     31  C   UNL     1      -8.897  -0.314   0.000  1.00  0.00     0.150 C 
ATOM     32  O   UNL     1      -7.871   0.780   0.000  1.00  0.00    -0.344 OA
ATOM     33  C   UNL     1      -8.462  -1.750   0.000  1.00  0.00     0.174 C 
ATOM     34  C   UNL     1      -7.002  -2.091   0.000  1.00  0.00     0.179 C 
ATOM     35  C   UNL     1      -5.976  -0.997   0.000  1.00  0.00     0.202 C 
ATOM     36  C   UNL     1     -10.358   0.027   0.000  1.00  0.00     0.041 C 
BRANCH  33  37
ATOM     37  O   UNL     1      -9.488  -2.844   0.000  1.00  0.00    -0.388 OA
ATOM     38  H   UNL     1       0.000   0.000   0.000  1.00  0.00     0.211 HD
ENDBRANCH  33  37
BRANCH  34  39
ATOM     39  O   UNL     1      -6.567  -3.527   0.000  1.00  0.00    -0.387 OA
ATOM     40  H   UNL     1       0.000   0.000   0.000  1.00  0.00     0.211 HD
ENDBRANCH  34  39
BRANCH  35  41
ATOM     41  O   UNL     1      -4.515  -1.339   0.000  1.00  0.00    -0.385 OA
ATOM     42  H   UNL     1       0.000   0.000   0.000  1.00  0.00     0.211 HD
ENDBRANCH  35  41
ENDBRANCH  29  30
ENDBRANCH   1  29
BRANCH  20  43
ATOM     43  C   UNL     1       1.919  -0.174   0.000  1.00  0.00     0.314 C 
ATOM     44  O   UNL     1       1.122  -0.186   0.000  1.00  0.00    -0.251 OA
BRANCH  43  45
ATOM     45  O   UNL     1       1.993  -1.672   0.000  1.00  0.00    -0.481 OA
ATOM     46  H   UNL     1       0.000   0.000   0.000  1.00  0.00     0.296 HD
ENDBRANCH  43  45
ENDBRANCH  20  43
BRANCH  17  47
ATOM     47  C   UNL     1       6.892   1.332   0.000  1.00  0.00     0.310 C 
ATOM     48  O   UNL     1       6.457   2.768   0.000  1.00  0.00    -0.252 OA
BRANCH  47  49
ATOM     49  O   UNL     1       8.353   0.991   0.000  1.00  0.00    -0.481 OA
ATOM     50  H   UNL     1       0.000   0.000   0.000  1.00  0.00     0.296 HD
ENDBRANCH  47  49
ENDBRANCH  17  47
TORSDOF 9
