REMARK SMILES C=CCSSSSC
REMARK SMILES IDX 4 1 3 2 2 3 1 4 5 5 6 6 7 7 8 8
REMARK H PARENT
ROOT
ATOM      1  S   UNL     1      -0.639   0.393   0.000  1.00  0.00    -0.078 SA
ENDROOT
BRANCH   1   2
ATOM      2  C   UNL     1      -1.958  -0.321   0.000  1.00  0.00     0.109 C 
BRANCH   2   3
ATOM      3  C   UNL     1      -3.236   0.466   0.000  1.00  0.00    -0.023 C 
ATOM      4  C   UNL     1      -4.555  -0.248   0.000  1.00  0.00     0.005 C 
ENDBRANCH   2   3
ENDBRANCH   1   2
BRANCH   1   5
ATOM      5  S   UNL     1       0.639  -0.393   0.000  1.00  0.00    -0.013 SA
BRANCH   5   6
ATOM      6  S   UNL     1       1.958   0.321   0.000  1.00  0.00    -0.014 SA
BRANCH   6   7
ATOM      7  S   UNL     1       3.236  -0.466   0.000  1.00  0.00    -0.085 SA
ATOM      8  C   UNL     1       4.555   0.248   0.000  1.00  0.00     0.099 C 
ENDBRANCH   6   7
ENDBRANCH   5   6
ENDBRANCH   1   5
TORSDOF 5
