REMARK SMILES C=C1CCCC(CO)CC[C@H](C(C)(C)O)CC1O
REMARK SMILES IDX 10 1 11 2 16 3 17 4 2 5 1 6 3 7 18 9 12 11 13 12 14 13 15 14
REMARK SMILES IDX 9 16 6 17 5 18 4 19 7 21 8 22
REMARK H PARENT 18 10 15 15 8 23
REMARK Flexibility Score:   24.900
ROOT
ATOM      1  C   UNL     1      -0.419   1.693   0.000  1.00  0.00     0.007 C 
ENDROOT
BRANCH   1   2
ATOM      2  C   UNL     1       0.995   1.191   0.000  1.00  0.00     0.023 C 
BRANCH   2   3
ATOM      3  C   UNL     1       1.842  -0.047   0.000  1.00  0.00     0.043 C 
BRANCH   3   4
ATOM      4  C   UNL     1       1.801  -1.546   0.000  1.00  0.00     0.140 C 
BRANCH   4   5
ATOM      5  C   UNL     1       0.886  -2.735   0.000  1.00  0.00    -0.049 C 
ATOM      6  C   UNL     1       1.734  -3.972   0.000  1.00  0.00     0.010 C 
BRANCH   5   7
ATOM      7  C   UNL     1      -0.553  -3.159   0.000  1.00  0.00     0.033 CG0
ATOM      8  G   UNL     1      -1.966  -2.656   0.000  1.00  0.00     0.000 G0
ENDBRANCH   5   7
ENDBRANCH   4   5
BRANCH   4   9
ATOM      9  O   UNL     1       3.214  -2.049   0.000  1.00  0.00    -0.389 OA
ATOM     10  H   UNL     1       0.000   0.000   0.000  1.00  0.00     0.211 HD
ENDBRANCH   4   9
ENDBRANCH   3   4
ENDBRANCH   2   3
BRANCH   2  11
ATOM     11  C   UNL     1       1.909   2.379   0.000  1.00  0.00     0.062 C 
ATOM     12  C   UNL     1       0.721   3.294   0.000  1.00  0.00     0.042 C 
ATOM     13  C   UNL     1       3.098   1.465   0.000  1.00  0.00     0.042 C 
BRANCH  11  14
ATOM     14  O   UNL     1       2.824   3.568   0.000  1.00  0.00    -0.390 OA
ATOM     15  H   UNL     1       0.000   0.000   0.000  1.00  0.00     0.211 HD
ENDBRANCH  11  14
ENDBRANCH   2  11
ENDBRANCH   1   2
BRANCH   1  16
ATOM     16  C   UNL     1      -1.858   1.269   0.000  1.00  0.00     0.006 C 
BRANCH  16  17
ATOM     17  C   UNL     1      -2.772   0.081   0.000  1.00  0.00     0.015 C 
BRANCH  17  18
ATOM     18  C   UNL     1      -2.814  -1.419   0.000  1.00  0.00     0.006 C 
BRANCH  18  19
ATOM     19  C   UNL     1      -1.966  -2.656   0.000  1.00  0.00     0.005 CG0
ATOM     20  G   UNL     1      -0.553  -3.159   0.000  1.00  0.00     0.000 G0
ENDBRANCH  18  19
ENDBRANCH  17  18
BRANCH  17  21
ATOM     21  C   UNL     1      -4.186   0.583   0.000  1.00  0.00     0.159 C 
BRANCH  21  22
ATOM     22  O   UNL     1      -4.457   2.059   0.000  1.00  0.00    -0.396 OA
ATOM     23  H   UNL     1       0.000   0.000   0.000  1.00  0.00     0.210 HD
ENDBRANCH  21  22
ENDBRANCH  17  21
ENDBRANCH  16  17
ENDBRANCH   1  16
TORSDOF 5
