REMARK SMILES C=CC1C(Cc2nc(C(=O)O)cc3c2[nH]c2ccc(O)cc23)C(C(=O)OC)=CO[C@H]1O[C@@H]1O[C@H](CO)[C@@H](O)[C@H](O)[C@H]1O
REMARK SMILES IDX 3 1 4 2 23 3 28 4 29 5 30 6 2 7 1 8 5 9 6 10 7 11 14 12 8 13
REMARK SMILES IDX 13 14 15 15 12 16 22 17 16 18 21 19 17 20 19 21 18 22 9 24
REMARK SMILES IDX 10 25 11 26 20 28 31 30 32 31 33 32 41 33 34 34 39 35 37 36
REMARK SMILES IDX 42 37 35 39 36 40 40 42 38 44 24 46 25 47 26 48 27 49
REMARK H PARENT 15 23 11 27 20 29 42 38 36 41 40 43 38 45
ROOT
ATOM      1  C   UNL     1      -0.699  -0.417   0.000  1.00  0.00     0.089 C 
ATOM      2  C   UNL     1       0.105  -1.684   0.000  1.00  0.00     0.049 C 
ATOM      3  C   UNL     1      -0.591  -3.013   0.000  1.00  0.00     0.076 C 
ATOM      4  C   UNL     1      -2.090  -3.075   0.000  1.00  0.00     0.202 C 
ATOM      5  O   UNL     1      -2.893  -1.808   0.000  1.00  0.00    -0.471 OA
ATOM      6  C   UNL     1      -2.197  -0.479   0.000  1.00  0.00     0.316 C 
ENDROOT
BRANCH   1   7
ATOM      7  C   UNL     1      -0.003   0.912   0.000  1.00  0.00    -0.024 C 
ATOM      8  C   UNL     1      -0.806   2.179   0.000  1.00  0.00     0.004 C 
ENDBRANCH   1   7
BRANCH   2   9
ATOM      9  C   UNL     1       1.603  -1.622   0.000  1.00  0.00     0.068 C 
BRANCH   9  10
ATOM     10  C   UNL     1       2.299  -0.293   0.000  1.00  0.00     0.066 A 
ATOM     11  N   UNL     1       1.496   0.974   0.000  1.00  0.00    -0.244 NA
ATOM     12  C   UNL     1       3.797  -0.230   0.000  1.00  0.00     0.068 A 
ATOM     13  C   UNL     1       2.191   2.303   0.000  1.00  0.00     0.149 A 
ATOM     14  C   UNL     1       4.493   1.099   0.000  1.00  0.00     0.012 A 
ATOM     15  N   UNL     1       4.846  -1.303   0.000  1.00  0.00    -0.353 N 
ATOM     16  C   UNL     1       3.690   2.365   0.000  1.00  0.00     0.047 A 
ATOM     17  C   UNL     1       5.972   0.848   0.000  1.00  0.00     0.011 A 
ATOM     18  C   UNL     1       6.190  -0.636   0.000  1.00  0.00     0.047 A 
ATOM     19  C   UNL     1       7.148   1.779   0.000  1.00  0.00     0.057 A 
ATOM     20  C   UNL     1       7.585  -1.189   0.000  1.00  0.00     0.030 A 
ATOM     21  C   UNL     1       8.542   1.226   0.000  1.00  0.00     0.116 A 
ATOM     22  C   UNL     1       8.761  -0.258   0.000  1.00  0.00     0.048 A 
ATOM     23  H   UNL     1       0.000   0.000   0.000  1.00  0.00     0.167 HD
BRANCH  13  24
ATOM     24  C   UNL     1       1.388   3.570   0.000  1.00  0.00     0.354 C 
ATOM     25  O   UNL     1      -0.111   3.508   0.000  1.00  0.00    -0.245 OA
BRANCH  24  26
ATOM     26  O   UNL     1       2.083   4.899   0.000  1.00  0.00    -0.477 OA
ATOM     27  H   UNL     1       0.000   0.000   0.000  1.00  0.00     0.297 HD
ENDBRANCH  24  26
ENDBRANCH  13  24
BRANCH  21  28
ATOM     28  O   UNL     1       9.718   2.158   0.000  1.00  0.00    -0.508 OA
ATOM     29  H   UNL     1       0.000   0.000   0.000  1.00  0.00     0.293 HD
ENDBRANCH  21  28
ENDBRANCH   9  10
ENDBRANCH   2   9
BRANCH   6  30
ATOM     30  O   UNL     1      -3.001   0.788   0.000  1.00  0.00    -0.310 OA
BRANCH  30  31
ATOM     31  C   UNL     1      -4.499   0.726   0.000  1.00  0.00     0.286 C 
ATOM     32  O   UNL     1      -5.303   1.992   0.000  1.00  0.00    -0.341 OA
ATOM     33  C   UNL     1      -5.195  -0.603   0.000  1.00  0.00     0.202 C 
ATOM     34  C   UNL     1      -6.801   1.930   0.000  1.00  0.00     0.178 C 
ATOM     35  C   UNL     1      -6.694  -0.666   0.000  1.00  0.00     0.179 C 
ATOM     36  C   UNL     1      -7.497   0.601   0.000  1.00  0.00     0.177 C 
BRANCH  33  37
ATOM     37  O   UNL     1      -4.392  -1.870   0.000  1.00  0.00    -0.385 OA
ATOM     38  H   UNL     1       0.000   0.000   0.000  1.00  0.00     0.211 HD
ENDBRANCH  33  37
BRANCH  34  39
ATOM     39  C   UNL     1      -7.604   3.197   0.000  1.00  0.00     0.191 C 
BRANCH  39  40
ATOM     40  O   UNL     1      -6.909   4.526   0.000  1.00  0.00    -0.394 OA
ATOM     41  H   UNL     1       0.000   0.000   0.000  1.00  0.00     0.210 HD
ENDBRANCH  39  40
ENDBRANCH  34  39
BRANCH  35  42
ATOM     42  O   UNL     1      -7.389  -1.995   0.000  1.00  0.00    -0.387 OA
ATOM     43  H   UNL     1       0.000   0.000   0.000  1.00  0.00     0.211 HD
ENDBRANCH  35  42
BRANCH  36  44
ATOM     44  O   UNL     1      -8.995   0.539   0.000  1.00  0.00    -0.387 OA
ATOM     45  H   UNL     1       0.000   0.000   0.000  1.00  0.00     0.211 HD
ENDBRANCH  36  44
ENDBRANCH  30  31
ENDBRANCH   6  30
BRANCH   3  46
ATOM     46  C   UNL     1       0.212  -4.280   0.000  1.00  0.00     0.337 C 
ATOM     47  O   UNL     1       1.711  -4.217   0.000  1.00  0.00    -0.246 OA
BRANCH  46  48
ATOM     48  O   UNL     1      -0.483  -5.609   0.000  1.00  0.00    -0.466 OA
ATOM     49  C   UNL     1       0.320  -6.875   0.000  1.00  0.00     0.282 C 
ENDBRANCH  46  48
ENDBRANCH   3  46
TORSDOF 15
