REMARK SMILES O=C(O)[C@H]1[C@H]2C=C[C@H](CO)[C@H]2[C@H](O[C@@H]2O[C@H](CO)[C@@H](O)[C@H](O)[C@H]2O)O[C@@H]1O
REMARK SMILES IDX 13 1 12 2 4 3 5 4 26 5 6 6 11 7 25 8 7 9 8 10 2 11 1 12 3 13
REMARK SMILES IDX 27 15 9 17 10 18 14 20 15 21 23 22 16 23 21 24 19 25 24 26
REMARK SMILES IDX 17 28 18 29 22 31 20 33
REMARK H PARENT 3 14 27 16 10 19 24 27 18 30 22 32 20 34
ROOT
ATOM      1  O   UNL     1       0.597   1.302   0.000  1.00  0.00    -0.321 OA
ENDROOT
BRANCH   1   2
ATOM      2  C   UNL     1      -0.630   0.438   0.000  1.00  0.00     0.260 C 
ATOM      3  C   UNL     1      -3.083  -1.288   0.000  1.00  0.00     0.162 C 
ATOM      4  C   UNL     1      -3.217   0.205   0.000  1.00  0.00     0.039 C 
ATOM      5  C   UNL     1      -1.722  -1.919   0.000  1.00  0.00     0.264 C 
ATOM      6  C   UNL     1      -4.418   1.105   0.000  1.00  0.00    -0.026 C 
ATOM      7  C   UNL     1      -1.991   1.069   0.000  1.00  0.00     0.063 C 
ATOM      8  O   UNL     1      -0.495  -1.056   0.000  1.00  0.00    -0.323 OA
ATOM      9  C   UNL     1      -3.933   2.525   0.000  1.00  0.00    -0.025 C 
ATOM     10  C   UNL     1      -2.433   2.502   0.000  1.00  0.00     0.046 C 
BRANCH   3  11
ATOM     11  C   UNL     1      -4.309  -2.152   0.000  1.00  0.00     0.312 C 
ATOM     12  O   UNL     1      -5.671  -1.522   0.000  1.00  0.00    -0.252 OA
BRANCH  11  13
ATOM     13  O   UNL     1      -4.175  -3.646   0.000  1.00  0.00    -0.481 OA
ATOM     14  H   UNL     1       0.000   0.000   0.000  1.00  0.00     0.296 HD
ENDBRANCH  11  13
ENDBRANCH   3  11
BRANCH   5  15
ATOM     15  O   UNL     1      -1.587  -3.413   0.000  1.00  0.00    -0.367 OA
ATOM     16  H   UNL     1       0.000   0.000   0.000  1.00  0.00     0.213 HD
ENDBRANCH   5  15
BRANCH  10  17
ATOM     17  C   UNL     1      -1.533   3.703   0.000  1.00  0.00     0.164 C 
BRANCH  17  18
ATOM     18  O   UNL     1      -2.123   5.082   0.000  1.00  0.00    -0.396 OA
ATOM     19  H   UNL     1       0.000   0.000   0.000  1.00  0.00     0.210 HD
ENDBRANCH  17  18
ENDBRANCH  10  17
ENDBRANCH   1   2
BRANCH   1  20
ATOM     20  C   UNL     1       1.958   0.671   0.000  1.00  0.00     0.285 C 
ATOM     21  O   UNL     1       2.092  -0.823   0.000  1.00  0.00    -0.341 OA
ATOM     22  C   UNL     1       3.184   1.535   0.000  1.00  0.00     0.202 C 
ATOM     23  C   UNL     1       3.453  -1.453   0.000  1.00  0.00     0.178 C 
ATOM     24  C   UNL     1       4.545   0.904   0.000  1.00  0.00     0.179 C 
ATOM     25  C   UNL     1       4.680  -0.590   0.000  1.00  0.00     0.177 C 
BRANCH  22  26
ATOM     26  O   UNL     1       3.050   3.029   0.000  1.00  0.00    -0.385 OA
ATOM     27  H   UNL     1       0.000   0.000   0.000  1.00  0.00     0.211 HD
ENDBRANCH  22  26
BRANCH  23  28
ATOM     28  C   UNL     1       3.588  -2.947   0.000  1.00  0.00     0.191 C 
BRANCH  28  29
ATOM     29  O   UNL     1       2.361  -3.811   0.000  1.00  0.00    -0.394 OA
ATOM     30  H   UNL     1       0.000   0.000   0.000  1.00  0.00     0.210 HD
ENDBRANCH  28  29
ENDBRANCH  23  28
BRANCH  24  31
ATOM     31  O   UNL     1       5.772   1.768   0.000  1.00  0.00    -0.387 OA
ATOM     32  H   UNL     1       0.000   0.000   0.000  1.00  0.00     0.211 HD
ENDBRANCH  24  31
BRANCH  25  33
ATOM     33  O   UNL     1       6.041  -1.220   0.000  1.00  0.00    -0.387 OA
ATOM     34  H   UNL     1       0.000   0.000   0.000  1.00  0.00     0.211 HD
ENDBRANCH  25  33
ENDBRANCH   1  20
TORSDOF 12
