REMARK SMILES COc1cc2ccc(=O)oc2cc1O
REMARK SMILES IDX 3 1 4 2 5 3 11 4 12 5 13 6 10 7 8 8 9 9 7 10 6 11 2 12 1 13
REMARK SMILES IDX 14 14
REMARK H PARENT 14 15
ROOT
ATOM      1  C   UNL     1      -2.136   0.126   0.000  1.00  0.00     0.161 A 
ATOM      2  C   UNL     1      -1.060   1.170   0.000  1.00  0.00     0.062 A 
ATOM      3  C   UNL     1       0.383   0.759   0.000  1.00  0.00     0.022 A 
ATOM      4  C   UNL     1       0.749  -0.695   0.000  1.00  0.00     0.142 A 
ATOM      5  C   UNL     1      -0.328  -1.740   0.000  1.00  0.00     0.098 A 
ATOM      6  C   UNL     1      -1.771  -1.329   0.000  1.00  0.00     0.161 A 
ATOM      7  O   UNL     1       2.192  -1.106   0.000  1.00  0.00    -0.423 OA
ATOM      8  C   UNL     1       3.269  -0.062   0.000  1.00  0.00     0.336 A 
ATOM      9  O   UNL     1       4.711  -0.472   0.000  1.00  0.00    -0.246 OA
ATOM     10  C   UNL     1       2.903   1.393   0.000  1.00  0.00     0.094 A 
ATOM     11  C   UNL     1       1.460   1.804   0.000  1.00  0.00     0.019 A 
ENDROOT
BRANCH   1  12
ATOM     12  O   UNL     1      -3.579   0.536   0.000  1.00  0.00    -0.493 OA
ATOM     13  C   UNL     1      -3.945   1.991   0.000  1.00  0.00     0.278 C 
ENDBRANCH   1  12
BRANCH   6  14
ATOM     14  O   UNL     1      -2.847  -2.373   0.000  1.00  0.00    -0.504 OA
ATOM     15  H   UNL     1       0.000   0.000   0.000  1.00  0.00     0.293 HD
ENDBRANCH   6  14
TORSDOF 2
