REMARK SMILES Cc1ccc2c(c1)[C@H](C(C)C)CC[C@@H]2C
REMARK SMILES IDX 1 1 2 2 3 3 4 4 5 5 6 6 7 7 8 8 12 9 13 10 14 11 15 12 9 13
REMARK SMILES IDX 10 14 11 15
REMARK H PARENT
ROOT
ATOM      1  C   UNL     1      -3.000  -2.771   0.000  1.00  0.00     0.044 C 
ATOM      2  C   UNL     1      -2.250  -1.472   0.000  1.00  0.00    -0.051 A 
ATOM      3  C   UNL     1      -3.000  -0.173   0.000  1.00  0.00     0.004 A 
ATOM      4  C   UNL     1      -2.250   1.126   0.000  1.00  0.00     0.004 A 
ATOM      5  C   UNL     1      -0.750   1.126   0.000  1.00  0.00    -0.042 A 
ATOM      6  C   UNL     1      -0.000  -0.173   0.000  1.00  0.00    -0.041 A 
ATOM      7  C   UNL     1      -0.750  -1.472   0.000  1.00  0.00     0.007 A 
ATOM      8  C   UNL     1       1.500  -0.173   0.000  1.00  0.00     0.022 C 
ATOM      9  C   UNL     1       2.250   1.126   0.000  1.00  0.00     0.009 C 
ATOM     10  C   UNL     1       1.500   2.425   0.000  1.00  0.00     0.009 C 
ATOM     11  C   UNL     1       0.000   2.425   0.000  1.00  0.00     0.016 C 
ATOM     12  C   UNL     1      -0.750   3.724   0.000  1.00  0.00     0.013 C 
ENDROOT
BRANCH   8  13
ATOM     13  C   UNL     1       2.250  -1.472   0.000  1.00  0.00    -0.010 C 
ATOM     14  C   UNL     1       3.750  -1.472   0.000  1.00  0.00     0.008 C 
ATOM     15  C   UNL     1       1.500  -2.771   0.000  1.00  0.00     0.008 C 
ENDBRANCH   8  13
TORSDOF 1
