REMARK SMILES CC(=O)Oc1cccc(OC(C)=O)c1C(=O)CCCCCCCCCCc1ccccc1
REMARK SMILES IDX 19 1 18 2 17 3 15 4 16 5 14 6 5 7 6 8 7 9 9 10 8 11 4 12
REMARK SMILES IDX 2 13 1 14 3 15 10 16 11 17 12 18 13 19 20 20 21 21 22 22
REMARK SMILES IDX 23 23 24 24 25 25 26 26 27 27 28 28 32 29 29 30 31 31 30 32
REMARK H PARENT
ROOT
ATOM      1  C   UNL     1      -0.290   0.154   0.000  1.00  0.00     0.000 C 
ENDROOT
BRANCH   1   2
ATOM      2  C   UNL     1      -1.614   0.858   0.000  1.00  0.00     0.008 C 
BRANCH   2   3
ATOM      3  C   UNL     1      -2.886   0.063   0.000  1.00  0.00     0.081 C 
BRANCH   3   4
ATOM      4  C   UNL     1      -4.211   0.767   0.000  1.00  0.00     0.170 C 
ATOM      5  O   UNL     1      -4.263   2.266   0.000  1.00  0.00    -0.294 OA
BRANCH   4   6
ATOM      6  C   UNL     1      -5.483  -0.028   0.000  1.00  0.00     0.103 A 
ATOM      7  C   UNL     1      -5.430  -1.527   0.000  1.00  0.00     0.145 A 
ATOM      8  C   UNL     1      -6.702  -2.322   0.000  1.00  0.00     0.048 A 
ATOM      9  C   UNL     1      -8.027  -1.618   0.000  1.00  0.00     0.008 A 
ATOM     10  C   UNL     1      -6.807   0.676   0.000  1.00  0.00     0.145 A 
ATOM     11  C   UNL     1      -8.079  -0.118   0.000  1.00  0.00     0.048 A 
BRANCH   7  12
ATOM     12  O   UNL     1      -4.106  -2.231   0.000  1.00  0.00    -0.426 OA
BRANCH  12  13
ATOM     13  C   UNL     1      -4.053  -3.730   0.000  1.00  0.00     0.308 C 
ATOM     14  C   UNL     1      -2.729  -4.434   0.000  1.00  0.00     0.139 C 
ATOM     15  O   UNL     1      -5.325  -4.525   0.000  1.00  0.00    -0.252 OA
ENDBRANCH  12  13
ENDBRANCH   7  12
BRANCH  10  16
ATOM     16  O   UNL     1      -6.860   2.176   0.000  1.00  0.00    -0.426 OA
BRANCH  16  17
ATOM     17  C   UNL     1      -8.184   2.880   0.000  1.00  0.00     0.308 C 
ATOM     18  C   UNL     1      -8.236   4.379   0.000  1.00  0.00     0.139 C 
ATOM     19  O   UNL     1      -9.456   2.085   0.000  1.00  0.00    -0.252 OA
ENDBRANCH  16  17
ENDBRANCH  10  16
ENDBRANCH   4   6
ENDBRANCH   3   4
ENDBRANCH   2   3
ENDBRANCH   1   2
BRANCH   1  20
ATOM     20  C   UNL     1       0.982   0.949   0.000  1.00  0.00     0.000 C 
BRANCH  20  21
ATOM     21  C   UNL     1       2.307   0.245   0.000  1.00  0.00     0.000 C 
BRANCH  21  22
ATOM     22  C   UNL     1       3.579   1.040   0.000  1.00  0.00     0.000 C 
BRANCH  22  23
ATOM     23  C   UNL     1       4.903   0.336   0.000  1.00  0.00     0.000 C 
BRANCH  23  24
ATOM     24  C   UNL     1       6.175   1.131   0.000  1.00  0.00     0.000 C 
BRANCH  24  25
ATOM     25  C   UNL     1       7.500   0.426   0.000  1.00  0.00     0.005 C 
BRANCH  25  26
ATOM     26  C   UNL     1       8.772   1.222   0.000  1.00  0.00     0.035 C 
BRANCH  26  27
ATOM     27  C   UNL     1      10.096   0.517   0.000  1.00  0.00    -0.048 A 
ATOM     28  C   UNL     1      10.149  -0.982   0.000  1.00  0.00     0.004 A 
ATOM     29  C   UNL     1      11.368   1.312   0.000  1.00  0.00     0.004 A 
ATOM     30  C   UNL     1      11.473  -1.686   0.000  1.00  0.00     0.000 A 
ATOM     31  C   UNL     1      12.693   0.608   0.000  1.00  0.00     0.000 A 
ATOM     32  C   UNL     1      12.745  -0.891   0.000  1.00  0.00     0.000 A 
ENDBRANCH  26  27
ENDBRANCH  25  26
ENDBRANCH  24  25
ENDBRANCH  23  24
ENDBRANCH  22  23
ENDBRANCH  21  22
ENDBRANCH  20  21
ENDBRANCH   1  20
TORSDOF 16
