REMARK SMILES C=CCc1cc(OC)c(OC)c(OC)c1
REMARK SMILES IDX 4 1 5 2 6 3 9 4 12 5 15 6 3 7 2 8 1 9 7 10 8 11 13 12 14 13
REMARK SMILES IDX 10 14 11 15
REMARK H PARENT
ROOT
ATOM      1  C   UNL     1      -1.558  -0.365   0.000  1.00  0.00    -0.037 A 
ATOM      2  C   UNL     1      -1.124   1.071   0.000  1.00  0.00     0.054 A 
ATOM      3  C   UNL     1       0.336   1.413   0.000  1.00  0.00     0.164 A 
ATOM      4  C   UNL     1       1.363   0.320   0.000  1.00  0.00     0.203 A 
ATOM      5  C   UNL     1       0.929  -1.116   0.000  1.00  0.00     0.164 A 
ATOM      6  C   UNL     1      -0.531  -1.459   0.000  1.00  0.00     0.054 A 
ENDROOT
BRANCH   1   7
ATOM      7  C   UNL     1      -3.018  -0.708   0.000  1.00  0.00     0.062 C 
BRANCH   7   8
ATOM      8  C   UNL     1      -4.045   0.386   0.000  1.00  0.00    -0.030 C 
ATOM      9  C   UNL     1      -5.505   0.043   0.000  1.00  0.00     0.004 C 
ENDBRANCH   7   8
ENDBRANCH   1   7
BRANCH   3  10
ATOM     10  O   UNL     1       0.770   2.849   0.000  1.00  0.00    -0.493 OA
ATOM     11  C   UNL     1       2.230   3.192   0.000  1.00  0.00     0.278 C 
ENDBRANCH   3  10
BRANCH   5  12
ATOM     12  O   UNL     1       1.956  -2.210   0.000  1.00  0.00    -0.493 OA
ATOM     13  C   UNL     1       1.523  -3.646   0.000  1.00  0.00     0.278 C 
ENDBRANCH   5  12
BRANCH   4  14
ATOM     14  O   UNL     1       2.823   0.662   0.000  1.00  0.00    -0.490 OA
ATOM     15  C   UNL     1       3.850  -0.431   0.000  1.00  0.00     0.278 C 
ENDBRANCH   4  14
TORSDOF 5
