REMARK SMILES COc1cc2c(cc1O)[C@@H]1COc3cc(OC)c(O)cc3[C@@H]1O2
REMARK SMILES IDX 3 1 4 2 5 3 6 4 7 5 8 6 10 7 11 8 12 9 13 10 14 11 15 12
REMARK SMILES IDX 18 13 20 14 21 15 22 16 23 17 2 18 1 19 9 20 19 22 16 24
REMARK SMILES IDX 17 25
REMARK H PARENT 9 21 19 23
ROOT
ATOM      1  C   UNL     1       4.728  -0.436   0.000  1.00  0.00     0.164 A 
ATOM      2  C   UNL     1       3.519  -1.325   0.000  1.00  0.00     0.097 A 
ATOM      3  C   UNL     1       2.145  -0.723   0.000  1.00  0.00     0.128 A 
ATOM      4  C   UNL     1       1.980   0.768   0.000  1.00  0.00     0.009 A 
ATOM      5  C   UNL     1       3.188   1.657   0.000  1.00  0.00     0.058 A 
ATOM      6  C   UNL     1       4.562   1.054   0.000  1.00  0.00     0.158 A 
ATOM      7  C   UNL     1       0.511   1.071   0.000  1.00  0.00     0.106 C 
ATOM      8  C   UNL     1      -0.247   2.366   0.000  1.00  0.00     0.242 C 
ATOM      9  O   UNL     1      -1.747   2.357   0.000  1.00  0.00    -0.492 OA
ATOM     10  C   UNL     1      -2.489   1.054   0.000  1.00  0.00     0.130 A 
ATOM     11  C   UNL     1      -3.989   1.045   0.000  1.00  0.00     0.097 A 
ATOM     12  C   UNL     1      -4.731  -0.258   0.000  1.00  0.00     0.164 A 
ATOM     13  C   UNL     1      -3.974  -1.553   0.000  1.00  0.00     0.158 A 
ATOM     14  C   UNL     1      -2.474  -1.544   0.000  1.00  0.00     0.061 A 
ATOM     15  C   UNL     1      -1.732  -0.241   0.000  1.00  0.00     0.039 A 
ATOM     16  C   UNL     1      -0.232  -0.232   0.000  1.00  0.00     0.218 C 
ATOM     17  O   UNL     1       0.779  -1.341   0.000  1.00  0.00    -0.484 OA
ENDROOT
BRANCH   1  18
ATOM     18  O   UNL     1       6.101  -1.039   0.000  1.00  0.00    -0.493 OA
ATOM     19  C   UNL     1       6.267  -2.529   0.000  1.00  0.00     0.278 C 
ENDBRANCH   1  18
BRANCH   6  20
ATOM     20  O   UNL     1       5.771   1.943   0.000  1.00  0.00    -0.504 OA
ATOM     21  H   UNL     1       0.000   0.000   0.000  1.00  0.00     0.293 HD
ENDBRANCH   6  20
BRANCH  13  22
ATOM     22  O   UNL     1      -4.716  -2.856   0.000  1.00  0.00    -0.504 OA
ATOM     23  H   UNL     1       0.000   0.000   0.000  1.00  0.00     0.293 HD
ENDBRANCH  13  22
BRANCH  12  24
ATOM     24  O   UNL     1      -6.231  -0.267   0.000  1.00  0.00    -0.493 OA
ATOM     25  C   UNL     1      -6.989   1.028   0.000  1.00  0.00     0.278 C 
ENDBRANCH  12  24
TORSDOF 4
