REMARK SMILES COC(=O)C1=CO[C@@H](C)[C@H]2CN3CCc4c([nH]c5ccccc45)[C@H]3C[C@H]12
REMARK SMILES IDX 3 1 4 2 2 3 1 4 5 5 6 6 26 7 7 8 25 9 10 10 8 11 24 12 11 13
REMARK SMILES IDX 16 14 12 15 15 16 17 17 13 18 14 19 23 20 18 21 22 22 19 23
REMARK SMILES IDX 21 24 20 25 9 26
REMARK H PARENT 17 27
ROOT
ATOM      1  C   UNL     1      -3.154  -2.318   0.000  1.00  0.00     0.337 C 
ATOM      2  O   UNL     1      -1.740  -2.821   0.000  1.00  0.00    -0.246 OA
ENDROOT
BRANCH   1   3
ATOM      3  O   UNL     1      -4.296  -3.291   0.000  1.00  0.00    -0.466 OA
ATOM      4  C   UNL     1      -4.025  -4.766   0.000  1.00  0.00     0.282 C 
ENDBRANCH   1   3
BRANCH   1   5
ATOM      5  C   UNL     1      -3.425  -0.843   0.000  1.00  0.00     0.075 C 
ATOM      6  C   UNL     1      -4.838  -0.340   0.000  1.00  0.00     0.198 C 
ATOM      7  C   UNL     1      -2.282   0.129   0.000  1.00  0.00     0.040 C 
ATOM      8  O   UNL     1      -5.109   1.135   0.000  1.00  0.00    -0.497 OA
ATOM      9  C   UNL     1      -0.869  -0.374   0.000  1.00  0.00     0.035 C 
ATOM     10  C   UNL     1      -2.553   1.605   0.000  1.00  0.00     0.052 C 
ATOM     11  C   UNL     1      -3.966   2.108   0.000  1.00  0.00     0.174 C 
ATOM     12  C   UNL     1       0.273   0.598   0.000  1.00  0.00     0.104 C 
ATOM     13  C   UNL     1      -1.411   2.577   0.000  1.00  0.00     0.093 C 
ATOM     14  C   UNL     1       1.686   0.095   0.000  1.00  0.00     0.037 A 
ATOM     15  N   UNL     1       0.002   2.074   0.000  1.00  0.00    -0.294 NA
ATOM     16  C   UNL     1       2.829   1.068   0.000  1.00  0.00    -0.016 A 
ATOM     17  N   UNL     1       2.258  -1.292   0.000  1.00  0.00    -0.357 N 
ATOM     18  C   UNL     1       1.145   3.046   0.000  1.00  0.00     0.090 C 
ATOM     19  C   UNL     1       2.558   2.543   0.000  1.00  0.00     0.053 C 
ATOM     20  C   UNL     1       4.106   0.282   0.000  1.00  0.00     0.003 A 
ATOM     21  C   UNL     1       3.753  -1.176   0.000  1.00  0.00     0.046 A 
ATOM     22  C   UNL     1       5.545   0.705   0.000  1.00  0.00     0.010 A 
ATOM     23  C   UNL     1       4.840  -2.211   0.000  1.00  0.00     0.026 A 
ATOM     24  C   UNL     1       6.631  -0.329   0.000  1.00  0.00     0.001 A 
ATOM     25  C   UNL     1       6.279  -1.787   0.000  1.00  0.00     0.002 A 
ATOM     26  C   UNL     1      -4.237   3.583   0.000  1.00  0.00     0.053 C 
ATOM     27  H   UNL     1       0.000   0.000   0.000  1.00  0.00     0.166 HD
ENDBRANCH   1   5
TORSDOF 2
