REMARK SMILES O=C1CC(c2ccc(O)cc2)Oc2c1c(O)cc(O)c2[C@@H]1O[C@H](CO[C@@H]2O[C@H](CO)[C@@H](O)[C@H](O)[C@H]2O)[C@@H](O)[C@H](O)[C@H]1O
REMARK SMILES IDX 24 1 23 2 21 3 22 4 41 5 39 6 37 7 20 8 2 9 3 10 14 11 4 12
REMARK SMILES IDX 13 13 15 14 12 15 17 16 18 17 1 18 5 19 6 20 11 21 7 22
REMARK SMILES IDX 10 23 8 24 9 25 16 27 19 29 42 31 40 33 38 35 25 37 26 38
REMARK SMILES IDX 27 39 35 40 28 41 33 42 31 43 36 44 29 46 30 47 34 49 32 51
REMARK H PARENT 9 26 16 28 19 30 42 32 40 34 38 36 36 45 30 48 34 50 32 52
ROOT
ATOM      1  C   UNL     1       3.107   1.369   0.000  1.00  0.00     0.198 C 
ENDROOT
BRANCH   1   2
ATOM      2  C   UNL     1       1.611   1.262   0.000  1.00  0.00     0.176 C 
ATOM      3  C   UNL     1      -0.541  -0.194   0.000  1.00  0.00     0.188 C 
ATOM      4  O   UNL     1       0.955  -0.087   0.000  1.00  0.00    -0.362 OA
ATOM      5  C   UNL     1      -1.382   1.049   0.000  1.00  0.00     0.179 C 
ATOM      6  C   UNL     1      -0.726   2.398   0.000  1.00  0.00     0.177 C 
ATOM      7  C   UNL     1       0.770   2.505   0.000  1.00  0.00     0.177 C 
BRANCH   3   8
ATOM      8  C   UNL     1      -1.197  -1.543   0.000  1.00  0.00     0.068 A 
ATOM      9  C   UNL     1      -4.845  -3.105   0.000  1.00  0.00     0.174 C 
ATOM     10  C   UNL     1      -5.686  -1.863   0.000  1.00  0.00     0.131 C 
ATOM     11  C   UNL     1      -3.349  -2.998   0.000  1.00  0.00     0.102 A 
ATOM     12  C   UNL     1      -5.030  -0.513   0.000  1.00  0.00     0.211 C 
ATOM     13  C   UNL     1      -2.693  -1.649   0.000  1.00  0.00     0.144 A 
ATOM     14  C   UNL     1      -2.509  -4.241   0.000  1.00  0.00     0.133 A 
ATOM     15  O   UNL     1      -3.534  -0.407   0.000  1.00  0.00    -0.484 OA
ATOM     16  C   UNL     1      -1.012  -4.134   0.000  1.00  0.00     0.093 A 
ATOM     17  C   UNL     1      -0.356  -2.785   0.000  1.00  0.00     0.128 A 
ATOM     18  O   UNL     1      -5.501  -4.454   0.000  1.00  0.00    -0.294 OA
BRANCH  12  19
ATOM     19  C   UNL     1      -5.870   0.729   0.000  1.00  0.00    -0.007 A 
ATOM     20  C   UNL     1      -5.215   2.078   0.000  1.00  0.00     0.011 A 
ATOM     21  C   UNL     1      -7.366   0.622   0.000  1.00  0.00     0.011 A 
ATOM     22  C   UNL     1      -6.055   3.321   0.000  1.00  0.00     0.046 A 
ATOM     23  C   UNL     1      -8.207   1.865   0.000  1.00  0.00     0.046 A 
ATOM     24  C   UNL     1      -7.551   3.214   0.000  1.00  0.00     0.115 A 
BRANCH  24  25
ATOM     25  O   UNL     1      -8.392   4.456   0.000  1.00  0.00    -0.508 OA
ATOM     26  H   UNL     1       0.000   0.000   0.000  1.00  0.00     0.293 HD
ENDBRANCH  24  25
ENDBRANCH  12  19
BRANCH  14  27
ATOM     27  O   UNL     1      -3.164  -5.590   0.000  1.00  0.00    -0.507 OA
ATOM     28  H   UNL     1       0.000   0.000   0.000  1.00  0.00     0.293 HD
ENDBRANCH  14  27
BRANCH  17  29
ATOM     29  O   UNL     1       1.140  -2.679   0.000  1.00  0.00    -0.507 OA
ATOM     30  H   UNL     1       0.000   0.000   0.000  1.00  0.00     0.293 HD
ENDBRANCH  17  29
ENDBRANCH   3   8
BRANCH   5  31
ATOM     31  O   UNL     1      -2.878   0.942   0.000  1.00  0.00    -0.387 OA
ATOM     32  H   UNL     1       0.000   0.000   0.000  1.00  0.00     0.211 HD
ENDBRANCH   5  31
BRANCH   6  33
ATOM     33  O   UNL     1      -1.566   3.640   0.000  1.00  0.00    -0.387 OA
ATOM     34  H   UNL     1       0.000   0.000   0.000  1.00  0.00     0.211 HD
ENDBRANCH   6  33
BRANCH   7  35
ATOM     35  O   UNL     1       1.426   3.854   0.000  1.00  0.00    -0.388 OA
ATOM     36  H   UNL     1       0.000   0.000   0.000  1.00  0.00     0.211 HD
ENDBRANCH   7  35
ENDBRANCH   1   2
BRANCH   1  37
ATOM     37  O   UNL     1       3.947   0.126   0.000  1.00  0.00    -0.347 OA
BRANCH  37  38
ATOM     38  C   UNL     1       5.444   0.233   0.000  1.00  0.00     0.282 C 
ATOM     39  O   UNL     1       6.284  -1.010   0.000  1.00  0.00    -0.341 OA
ATOM     40  C   UNL     1       6.099   1.582   0.000  1.00  0.00     0.202 C 
ATOM     41  C   UNL     1       7.780  -0.903   0.000  1.00  0.00     0.178 C 
ATOM     42  C   UNL     1       7.596   1.688   0.000  1.00  0.00     0.179 C 
ATOM     43  C   UNL     1       8.436   0.446   0.000  1.00  0.00     0.177 C 
BRANCH  40  44
ATOM     44  O   UNL     1       5.259   2.824   0.000  1.00  0.00    -0.385 OA
ATOM     45  H   UNL     1       0.000   0.000   0.000  1.00  0.00     0.211 HD
ENDBRANCH  40  44
BRANCH  41  46
ATOM     46  C   UNL     1       8.621  -2.145   0.000  1.00  0.00     0.191 C 
BRANCH  46  47
ATOM     47  O   UNL     1       7.965  -3.494   0.000  1.00  0.00    -0.394 OA
ATOM     48  H   UNL     1       0.000   0.000   0.000  1.00  0.00     0.210 HD
ENDBRANCH  46  47
ENDBRANCH  41  46
BRANCH  42  49
ATOM     49  O   UNL     1       8.251   3.038   0.000  1.00  0.00    -0.387 OA
ATOM     50  H   UNL     1       0.000   0.000   0.000  1.00  0.00     0.211 HD
ENDBRANCH  42  49
BRANCH  43  51
ATOM     51  O   UNL     1       9.932   0.553   0.000  1.00  0.00    -0.387 OA
ATOM     52  H   UNL     1       0.000   0.000   0.000  1.00  0.00     0.211 HD
ENDBRANCH  43  51
ENDBRANCH  37  38
ENDBRANCH   1  37
TORSDOF 16
