REMARK SMILES Cc1cc(O)cc(O)c1
REMARK SMILES IDX 1 1 2 2 3 3 4 4 6 5 7 6 9 7 5 8 8 10
REMARK H PARENT 5 9 8 11
ROOT
ATOM      1  C   UNL     1       3.000   0.000   0.000  1.00  0.00     0.044 C 
ATOM      2  C   UNL     1       1.500  -0.000   0.000  1.00  0.00    -0.044 A 
ATOM      3  C   UNL     1       0.750  -1.299   0.000  1.00  0.00     0.049 A 
ATOM      4  C   UNL     1      -0.750  -1.299   0.000  1.00  0.00     0.119 A 
ATOM      5  C   UNL     1      -1.500   0.000   0.000  1.00  0.00     0.092 A 
ATOM      6  C   UNL     1      -0.750   1.299   0.000  1.00  0.00     0.119 A 
ATOM      7  C   UNL     1       0.750   1.299   0.000  1.00  0.00     0.049 A 
ENDROOT
BRANCH   4   8
ATOM      8  O   UNL     1      -1.500  -2.598   0.000  1.00  0.00    -0.508 OA
ATOM      9  H   UNL     1       0.000   0.000   0.000  1.00  0.00     0.293 HD
ENDBRANCH   4   8
BRANCH   6  10
ATOM     10  O   UNL     1      -1.500   2.598   0.000  1.00  0.00    -0.508 OA
ATOM     11  H   UNL     1       0.000   0.000   0.000  1.00  0.00     0.293 HD
ENDBRANCH   6  10
TORSDOF 2
