REMARK SMILES COc1cc(=O)oc2cc(O)cc(C)c12
REMARK SMILES IDX 3 1 4 2 5 3 6 4 7 5 8 6 9 7 10 8 12 9 13 10 14 11 15 12 2 13
REMARK SMILES IDX 1 14 11 15
REMARK H PARENT 11 16
ROOT
ATOM      1  C   UNL     1      -1.369  -0.704   0.000  1.00  0.00     0.137 A 
ATOM      2  C   UNL     1      -2.415   0.371   0.000  1.00  0.00     0.141 A 
ATOM      3  C   UNL     1      -2.007   1.815   0.000  1.00  0.00     0.339 A 
ATOM      4  O   UNL     1      -3.053   2.890   0.000  1.00  0.00    -0.246 OA
ATOM      5  O   UNL     1      -0.553   2.183   0.000  1.00  0.00    -0.422 OA
ATOM      6  C   UNL     1       0.493   1.108   0.000  1.00  0.00     0.146 A 
ATOM      7  C   UNL     1       1.947   1.476   0.000  1.00  0.00     0.094 A 
ATOM      8  C   UNL     1       2.993   0.401   0.000  1.00  0.00     0.119 A 
ATOM      9  C   UNL     1       2.585  -1.043   0.000  1.00  0.00     0.050 A 
ATOM     10  C   UNL     1       1.131  -1.411   0.000  1.00  0.00    -0.033 A 
ATOM     11  C   UNL     1       0.723  -2.854   0.000  1.00  0.00     0.045 C 
ATOM     12  C   UNL     1       0.085  -0.336   0.000  1.00  0.00     0.063 A 
ENDROOT
BRANCH   1  13
ATOM     13  O   UNL     1      -1.777  -2.147   0.000  1.00  0.00    -0.496 OA
ATOM     14  C   UNL     1      -3.231  -2.516   0.000  1.00  0.00     0.278 C 
ENDBRANCH   1  13
BRANCH   8  15
ATOM     15  O   UNL     1       4.447   0.769   0.000  1.00  0.00    -0.508 OA
ATOM     16  H   UNL     1       0.000   0.000   0.000  1.00  0.00     0.293 HD
ENDBRANCH   8  15
TORSDOF 2
