REMARK SMILES C=C[C@]1(C)CC2=C(C[C@H]1OC(C)=O)[C@@]1(C)CCCC(C)(C)[C@@H]1CC2=O
REMARK SMILES IDX 3 1 4 2 5 3 6 4 7 5 8 6 9 7 14 8 15 9 16 10 17 11 18 12
REMARK SMILES IDX 19 13 20 14 21 15 22 16 23 17 24 18 25 19 2 20 1 21 10 22
REMARK SMILES IDX 11 23 12 24 13 25
REMARK H PARENT
ROOT
ATOM      1  C   UNL     1      -2.609   1.309   0.000  1.00  0.00     0.027 C 
ATOM      2  C   UNL     1      -4.064   0.947   0.000  1.00  0.00     0.020 C 
ATOM      3  C   UNL     1      -1.365   2.147   0.000  1.00  0.00     0.054 C 
ATOM      4  C   UNL     1      -0.017   1.488   0.000  1.00  0.00    -0.004 C 
ATOM      5  C   UNL     1       0.087  -0.008   0.000  1.00  0.00    -0.054 C 
ATOM      6  C   UNL     1      -1.158  -0.846   0.000  1.00  0.00     0.078 C 
ATOM      7  C   UNL     1      -2.505  -0.188   0.000  1.00  0.00     0.190 C 
ATOM      8  C   UNL     1       1.434  -0.667   0.000  1.00  0.00    -0.007 C 
ATOM      9  C   UNL     1       0.190  -1.505   0.000  1.00  0.00     0.016 C 
ATOM     10  C   UNL     1       1.538  -2.163   0.000  1.00  0.00     0.011 C 
ATOM     11  C   UNL     1       2.885  -2.822   0.000  1.00  0.00     0.001 C 
ATOM     12  C   UNL     1       4.130  -1.984   0.000  1.00  0.00     0.007 C 
ATOM     13  C   UNL     1       4.026  -0.488   0.000  1.00  0.00    -0.031 C 
ATOM     14  C   UNL     1       4.441   0.954   0.000  1.00  0.00     0.011 C 
ATOM     15  C   UNL     1       5.518  -0.646   0.000  1.00  0.00     0.011 C 
ATOM     16  C   UNL     1       2.679   0.171   0.000  1.00  0.00     0.012 C 
ATOM     17  C   UNL     1       2.575   1.667   0.000  1.00  0.00     0.085 C 
ATOM     18  C   UNL     1       1.227   2.326   0.000  1.00  0.00     0.159 C 
ATOM     19  O   UNL     1       1.124   3.822   0.000  1.00  0.00    -0.295 OA
ENDROOT
BRANCH   1  20
ATOM     20  C   UNL     1      -3.218   2.680   0.000  1.00  0.00    -0.024 C 
ATOM     21  C   UNL     1      -2.335   3.893   0.000  1.00  0.00     0.005 C 
ENDBRANCH   1  20
BRANCH   7  22
ATOM     22  O   UNL     1      -3.749  -1.025   0.000  1.00  0.00    -0.461 OA
BRANCH  22  23
ATOM     23  C   UNL     1      -3.646  -2.522   0.000  1.00  0.00     0.302 C 
ATOM     24  C   UNL     1      -4.890  -3.360   0.000  1.00  0.00     0.139 C 
ATOM     25  O   UNL     1      -2.298  -3.180   0.000  1.00  0.00    -0.253 OA
ENDBRANCH  22  23
ENDBRANCH   7  22
TORSDOF 3
