REMARK SMILES C=C(C)[C@@H]1CC[C@]2(C(=O)O)CC[C@]3(C)[C@H](CC[C@@H]4[C@@]5(C)CC[C@H](O)C(C)(C)[C@@H]5CC[C@]43C)[C@@H]12
REMARK SMILES IDX 4 1 5 2 6 3 7 4 11 5 12 6 13 7 14 8 15 9 16 10 17 11 18 12
REMARK SMILES IDX 19 13 20 14 21 15 22 16 23 17 25 18 26 19 27 20 28 21 29 22
REMARK SMILES IDX 30 23 31 24 32 25 33 26 2 27 1 28 3 29 8 30 9 31 10 32 24 34
REMARK H PARENT 10 33 24 35
ROOT
ATOM      1  C   UNL     1       4.095  -1.495   0.000  1.00  0.00     0.019 C 
ATOM      2  C   UNL     1       5.447  -0.845   0.000  1.00  0.00     0.009 C 
ATOM      3  C   UNL     1       5.247   0.641   0.000  1.00  0.00     0.020 C 
ATOM      4  C   UNL     1       3.771   0.910   0.000  1.00  0.00     0.072 C 
ATOM      5  C   UNL     1       2.983   2.187   0.000  1.00  0.00     0.020 C 
ATOM      6  C   UNL     1       1.484   2.143   0.000  1.00  0.00     0.009 C 
ATOM      7  C   UNL     1       0.772   0.822   0.000  1.00  0.00    -0.024 C 
ATOM      8  C   UNL     1      -0.015   2.099   0.000  1.00  0.00     0.012 C 
ATOM      9  C   UNL     1       1.560  -0.454   0.000  1.00  0.00     0.000 C 
ATOM     10  C   UNL     1       0.848  -1.774   0.000  1.00  0.00     0.005 C 
ATOM     11  C   UNL     1      -0.651  -1.818   0.000  1.00  0.00     0.005 C 
ATOM     12  C   UNL     1      -1.439  -0.542   0.000  1.00  0.00     0.002 C 
ATOM     13  C   UNL     1      -2.938  -0.586   0.000  1.00  0.00    -0.026 C 
ATOM     14  C   UNL     1      -2.151  -1.862   0.000  1.00  0.00     0.012 C 
ATOM     15  C   UNL     1      -3.650  -1.906   0.000  1.00  0.00     0.010 C 
ATOM     16  C   UNL     1      -5.149  -1.950   0.000  1.00  0.00     0.033 C 
ATOM     17  C   UNL     1      -5.937  -0.673   0.000  1.00  0.00     0.120 C 
ATOM     18  C   UNL     1      -5.225   0.647   0.000  1.00  0.00    -0.006 C 
ATOM     19  C   UNL     1      -5.008   2.131   0.000  1.00  0.00     0.014 C 
ATOM     20  C   UNL     1      -6.649   1.119   0.000  1.00  0.00     0.014 C 
ATOM     21  C   UNL     1      -3.726   0.691   0.000  1.00  0.00     0.003 C 
ATOM     22  C   UNL     1      -3.014   2.011   0.000  1.00  0.00     0.005 C 
ATOM     23  C   UNL     1      -1.515   2.055   0.000  1.00  0.00     0.008 C 
ATOM     24  C   UNL     1      -0.727   0.779   0.000  1.00  0.00    -0.024 C 
ATOM     25  C   UNL     1       0.060  -0.498   0.000  1.00  0.00     0.012 C 
ATOM     26  C   UNL     1       3.059  -0.410   0.000  1.00  0.00     0.017 C 
ENDROOT
BRANCH   1  27
ATOM     27  C   UNL     1       3.826  -2.971   0.000  1.00  0.00    -0.077 C 
ATOM     28  C   UNL     1       2.414  -3.476   0.000  1.00  0.00     0.008 C 
ATOM     29  C   UNL     1       4.970  -3.942   0.000  1.00  0.00     0.039 C 
ENDBRANCH   1  27
BRANCH   4  30
ATOM     30  C   UNL     1       4.617   2.149   0.000  1.00  0.00     0.309 C 
ATOM     31  O   UNL     1       3.967   3.501   0.000  1.00  0.00    -0.252 OA
BRANCH  30  32
ATOM     32  O   UNL     1       6.112   2.036   0.000  1.00  0.00    -0.481 OA
ATOM     33  H   UNL     1       0.000   0.000   0.000  1.00  0.00     0.296 HD
ENDBRANCH  30  32
ENDBRANCH   4  30
BRANCH  17  34
ATOM     34  O   UNL     1      -7.436  -0.717   0.000  1.00  0.00    -0.393 OA
ATOM     35  H   UNL     1       0.000   0.000   0.000  1.00  0.00     0.210 HD
ENDBRANCH  17  34
TORSDOF 4
