REMARK SMILES C[C@@]1(CO)[C@H](O)CC[C@@]2(C)[C@H]1CCC1C[C@@H]3C[C@@]12CC[C@]3(O)CO
REMARK SMILES IDX 1 1 2 2 5 3 7 4 8 5 9 6 10 7 11 8 12 9 13 10 14 11 15 12
REMARK SMILES IDX 16 13 17 14 18 15 19 16 20 17 21 18 3 19 4 20 6 22 22 24
REMARK SMILES IDX 23 26 24 27
REMARK H PARENT 4 21 6 23 22 25 24 28
ROOT
ATOM      1  C   UNL     1      -3.478   1.440   0.000  1.00  0.00     0.017 C 
ATOM      2  C   UNL     1      -3.098  -0.011   0.000  1.00  0.00     0.020 C 
ATOM      3  C   UNL     1      -3.238  -1.505   0.000  1.00  0.00     0.123 C 
ATOM      4  C   UNL     1      -2.014  -2.372   0.000  1.00  0.00     0.033 C 
ATOM      5  C   UNL     1      -0.651  -1.747   0.000  1.00  0.00     0.010 C 
ATOM      6  C   UNL     1      -0.511  -0.253   0.000  1.00  0.00    -0.023 C 
ATOM      7  C   UNL     1      -1.875  -0.879   0.000  1.00  0.00     0.012 C 
ATOM      8  C   UNL     1      -1.735   0.615   0.000  1.00  0.00     0.006 C 
ATOM      9  C   UNL     1      -1.595   2.108   0.000  1.00  0.00     0.005 C 
ATOM     10  C   UNL     1      -0.232   2.734   0.000  1.00  0.00     0.004 C 
ATOM     11  C   UNL     1       0.992   1.866   0.000  1.00  0.00    -0.004 C 
ATOM     12  C   UNL     1       2.455   2.195   0.000  1.00  0.00     0.011 C 
ATOM     13  C   UNL     1       3.387   0.942   0.000  1.00  0.00     0.024 C 
ATOM     14  C   UNL     1       1.955   1.389   0.000  1.00  0.00     0.014 C 
ATOM     15  C   UNL     1       0.852   0.373   0.000  1.00  0.00    -0.021 C 
ATOM     16  C   UNL     1       1.181  -1.091   0.000  1.00  0.00     0.011 C 
ATOM     17  C   UNL     1       2.612  -1.538   0.000  1.00  0.00     0.038 C 
ATOM     18  C   UNL     1       3.716  -0.522   0.000  1.00  0.00     0.091 C 
ENDROOT
BRANCH   2  19
ATOM     19  C   UNL     1      -4.593  -0.133   0.000  1.00  0.00     0.165 C 
BRANCH  19  20
ATOM     20  O   UNL     1      -5.446   1.101   0.000  1.00  0.00    -0.396 OA
ATOM     21  H   UNL     1       0.000   0.000   0.000  1.00  0.00     0.210 HD
ENDBRANCH  19  20
ENDBRANCH   2  19
BRANCH   3  22
ATOM     22  O   UNL     1      -4.601  -2.130   0.000  1.00  0.00    -0.392 OA
ATOM     23  H   UNL     1       0.000   0.000   0.000  1.00  0.00     0.210 HD
ENDBRANCH   3  22
BRANCH  18  24
ATOM     24  O   UNL     1       4.525  -1.785   0.000  1.00  0.00    -0.387 OA
ATOM     25  H   UNL     1       0.000   0.000   0.000  1.00  0.00     0.211 HD
ENDBRANCH  18  24
BRANCH  18  26
ATOM     26  C   UNL     1       5.100   0.056   0.000  1.00  0.00     0.191 C 
BRANCH  26  27
ATOM     27  O   UNL     1       6.292  -0.854   0.000  1.00  0.00    -0.393 OA
ATOM     28  H   UNL     1       0.000   0.000   0.000  1.00  0.00     0.210 HD
ENDBRANCH  26  27
ENDBRANCH  18  26
TORSDOF 6
