REMARK SMILES CC1(C)C=Cc2c(ccc3c2OC[C@@H]2c4cc5c(cc4O[C@H]32)OCO5)O1
REMARK SMILES IDX 1 1 2 2 3 3 4 4 5 5 6 6 7 7 8 8 9 9 10 10 11 11 12 12 13 13
REMARK SMILES IDX 14 14 15 15 16 16 17 17 18 18 19 19 20 20 21 21 22 22 23 23
REMARK SMILES IDX 24 24 25 25 26 26
REMARK H PARENT
ROOT
ATOM      1  C   UNL     1       7.269  -0.800   0.000  1.00  0.00     0.061 C 
ATOM      2  C   UNL     1       6.177   0.227   0.000  1.00  0.00     0.122 C 
ATOM      3  C   UNL     1       7.378   1.125   0.000  1.00  0.00     0.061 C 
ATOM      4  C   UNL     1       5.501   1.566   0.000  1.00  0.00     0.021 C 
ATOM      5  C   UNL     1       4.003   1.651   0.000  1.00  0.00     0.015 C 
ATOM      6  C   UNL     1       3.181   0.397   0.000  1.00  0.00     0.059 A 
ATOM      7  C   UNL     1       3.857  -0.943   0.000  1.00  0.00     0.131 A 
ATOM      8  C   UNL     1       3.035  -2.197   0.000  1.00  0.00     0.048 A 
ATOM      9  C   UNL     1       1.537  -2.113   0.000  1.00  0.00     0.015 A 
ATOM     10  C   UNL     1       0.862  -0.773   0.000  1.00  0.00     0.036 A 
ATOM     11  C   UNL     1       1.684   0.481   0.000  1.00  0.00     0.137 A 
ATOM     12  O   UNL     1       1.008   1.820   0.000  1.00  0.00    -0.492 OA
ATOM     13  C   UNL     1      -0.489   1.905   0.000  1.00  0.00     0.242 C 
ATOM     14  C   UNL     1      -1.311   0.650   0.000  1.00  0.00     0.106 C 
ATOM     15  C   UNL     1      -2.794   0.422   0.000  1.00  0.00     0.009 A 
ATOM     16  C   UNL     1      -3.956   1.371   0.000  1.00  0.00     0.058 A 
ATOM     17  C   UNL     1      -5.358   0.839   0.000  1.00  0.00     0.166 A 
ATOM     18  C   UNL     1      -5.599  -0.642   0.000  1.00  0.00     0.169 A 
ATOM     19  C   UNL     1      -4.437  -1.590   0.000  1.00  0.00     0.097 A 
ATOM     20  C   UNL     1      -3.035  -1.059   0.000  1.00  0.00     0.128 A 
ATOM     21  O   UNL     1      -1.701  -1.745   0.000  1.00  0.00    -0.484 OA
ATOM     22  C   UNL     1      -0.636  -0.689   0.000  1.00  0.00     0.218 C 
ATOM     23  O   UNL     1      -7.082  -0.870   0.000  1.00  0.00    -0.453 OA
ATOM     24  C   UNL     1      -7.757   0.469   0.000  1.00  0.00     0.468 C 
ATOM     25  O   UNL     1      -6.692   1.525   0.000  1.00  0.00    -0.454 OA
ATOM     26  O   UNL     1       5.354  -1.028   0.000  1.00  0.00    -0.483 OA
ENDROOT
TORSDOF 0
