REMARK SMILES COc1cc2cc(C)oc(=O)c2c(O)c1Cl
REMARK SMILES IDX 3 1 4 2 5 3 12 4 13 5 15 6 16 7 10 8 11 9 9 10 7 11 8 12
REMARK SMILES IDX 6 13 2 14 1 15 14 16
REMARK H PARENT 14 17
ROOT
ATOM      1  C   UNL     1      -2.204   0.555   0.000  1.00  0.00     0.141 A 
ATOM      2  C   UNL     1      -1.017   1.472   0.000  1.00  0.00     0.057 A 
ATOM      3  C   UNL     1       0.370   0.901   0.000  1.00  0.00    -0.000 A 
ATOM      4  C   UNL     1       0.570  -0.586   0.000  1.00  0.00     0.111 A 
ATOM      5  C   UNL     1      -0.618  -1.502   0.000  1.00  0.00     0.153 A 
ATOM      6  C   UNL     1      -2.005  -0.931   0.000  1.00  0.00     0.125 A 
ATOM      7  Cl  UNL     1      -3.192  -1.847   0.000  1.00  0.00    -0.076 Cl
ATOM      8  C   UNL     1       1.957  -1.156   0.000  1.00  0.00     0.347 A 
ATOM      9  O   UNL     1       2.157  -2.643   0.000  1.00  0.00    -0.246 OA
ATOM     10  O   UNL     1       3.145  -0.240   0.000  1.00  0.00    -0.428 OA
ATOM     11  C   UNL     1       2.946   1.247   0.000  1.00  0.00     0.105 A 
ATOM     12  C   UNL     1       4.133   2.163   0.000  1.00  0.00     0.088 C 
ATOM     13  C   UNL     1       1.558   1.817   0.000  1.00  0.00     0.051 A 
ENDROOT
BRANCH   1  14
ATOM     14  O   UNL     1      -3.592   1.126   0.000  1.00  0.00    -0.495 OA
ATOM     15  C   UNL     1      -3.791   2.612   0.000  1.00  0.00     0.278 C 
ENDBRANCH   1  14
BRANCH   5  16
ATOM     16  O   UNL     1      -0.418  -2.988   0.000  1.00  0.00    -0.505 OA
ATOM     17  H   UNL     1       0.000   0.000   0.000  1.00  0.00     0.293 HD
ENDBRANCH   5  16
TORSDOF 2
