REMARK SMILES CC1=CC(=O)C[C@H]2[C@](C)(CCC(C)CCO)[C@@H](C)CC[C@@]12C
REMARK SMILES IDX 12 1 13 2 11 3 10 4 8 5 2 6 3 7 21 8 4 9 20 10 7 11 6 12
REMARK SMILES IDX 19 13 17 14 1 15 22 16 5 17 9 18 18 19 14 20 15 21 16 22
REMARK H PARENT 16 23
ROOT
ATOM      1  C   UNL     1      -3.420   1.069   0.000  1.00  0.00    -0.012 C 
ATOM      2  C   UNL     1      -4.648   1.930   0.000  1.00  0.00     0.008 C 
ENDROOT
BRANCH   1   3
ATOM      3  C   UNL     1      -2.060   1.702   0.000  1.00  0.00     0.004 C 
BRANCH   3   4
ATOM      4  C   UNL     1      -0.832   0.841   0.000  1.00  0.00     0.007 C 
BRANCH   4   5
ATOM      5  C   UNL     1       0.528   1.474   0.000  1.00  0.00    -0.026 C 
ATOM      6  C   UNL     1       2.752  -1.813   0.000  1.00  0.00    -0.064 C 
ATOM      7  C   UNL     1       1.690  -2.873   0.000  1.00  0.00     0.046 C 
ATOM      8  C   UNL     1       2.364  -0.364   0.000  1.00  0.00    -0.008 C 
ATOM      9  C   UNL     1       0.242  -2.484   0.000  1.00  0.00     0.155 C 
ATOM     10  C   UNL     1       3.426   0.696   0.000  1.00  0.00     0.012 C 
ATOM     11  C   UNL     1       0.916   0.025   0.000  1.00  0.00     0.013 C 
ATOM     12  C   UNL     1      -0.146  -1.035   0.000  1.00  0.00     0.085 C 
ATOM     13  C   UNL     1       3.038   2.145   0.000  1.00  0.00     0.005 C 
ATOM     14  C   UNL     1       1.589   2.534   0.000  1.00  0.00    -0.008 C 
ATOM     15  C   UNL     1       4.200  -2.202   0.000  1.00  0.00     0.040 C 
ATOM     16  C   UNL     1       3.813  -0.753   0.000  1.00  0.00     0.016 C 
ATOM     17  O   UNL     1      -0.820  -3.544   0.000  1.00  0.00    -0.295 OA
ATOM     18  C   UNL     1      -0.331   2.704   0.000  1.00  0.00     0.012 C 
ATOM     19  C   UNL     1       1.202   3.983   0.000  1.00  0.00     0.008 C 
ENDBRANCH   4   5
ENDBRANCH   3   4
ENDBRANCH   1   3
BRANCH   1  20
ATOM     20  C   UNL     1      -3.551  -0.425   0.000  1.00  0.00     0.031 C 
BRANCH  20  21
ATOM     21  C   UNL     1      -4.911  -1.058   0.000  1.00  0.00     0.156 C 
BRANCH  21  22
ATOM     22  O   UNL     1      -5.043  -2.553   0.000  1.00  0.00    -0.396 OA
ATOM     23  H   UNL     1       0.000   0.000   0.000  1.00  0.00     0.210 HD
ENDBRANCH  21  22
ENDBRANCH  20  21
ENDBRANCH   1  20
TORSDOF 6
