REMARK SMILES COc1cccc2c3c(c(=O)[nH]c12)C=CC(C)(C)O3
REMARK SMILES IDX 3 1 4 2 5 3 6 4 7 5 13 6 12 7 10 8 11 9 9 10 8 11 19 12
REMARK SMILES IDX 16 13 17 14 18 15 15 16 14 17 2 19 1 20
REMARK H PARENT 12 18
ROOT
ATOM      1  C   UNL     1      -3.076   0.224   0.000  1.00  0.00     0.143 A 
ATOM      2  C   UNL     1      -3.362   1.697   0.000  1.00  0.00     0.049 A 
ATOM      3  C   UNL     1      -2.231   2.681   0.000  1.00  0.00     0.005 A 
ATOM      4  C   UNL     1      -0.812   2.193   0.000  1.00  0.00     0.014 A 
ATOM      5  C   UNL     1      -0.526   0.721   0.000  1.00  0.00     0.045 A 
ATOM      6  C   UNL     1      -1.657  -0.264   0.000  1.00  0.00     0.095 A 
ATOM      7  N   UNL     1      -1.371  -1.736   0.000  1.00  0.00    -0.318 N 
ATOM      8  C   UNL     1       0.048  -2.224   0.000  1.00  0.00     0.259 A 
ATOM      9  O   UNL     1       0.334  -3.696   0.000  1.00  0.00    -0.269 OA
ATOM     10  C   UNL     1       1.179  -1.240   0.000  1.00  0.00     0.082 A 
ATOM     11  C   UNL     1       0.893   0.233   0.000  1.00  0.00     0.142 A 
ATOM     12  O   UNL     1       2.025   1.217   0.000  1.00  0.00    -0.482 OA
ATOM     13  C   UNL     1       3.443   0.729   0.000  1.00  0.00     0.122 C 
ATOM     14  C   UNL     1       4.943   0.756   0.000  1.00  0.00     0.061 C 
ATOM     15  C   UNL     1       3.677   2.211   0.000  1.00  0.00     0.061 C 
ATOM     16  C   UNL     1       3.730  -0.743   0.000  1.00  0.00     0.021 C 
ATOM     17  C   UNL     1       2.598  -1.727   0.000  1.00  0.00     0.017 C 
ATOM     18  H   UNL     1       0.000   0.000   0.000  1.00  0.00     0.170 HD
ENDROOT
BRANCH   1  19
ATOM     19  O   UNL     1      -4.208  -0.760   0.000  1.00  0.00    -0.495 OA
ATOM     20  C   UNL     1      -5.626  -0.272   0.000  1.00  0.00     0.278 C 
ENDBRANCH   1  19
TORSDOF 1
