REMARK SMILES C[C@H]1[C@H](C)CC[C@]2(C(=O)O)CC[C@]3(C(=O)O)C(=CC[C@@H]4[C@@]5(C)CC[C@H](O[C@H]6O[C@@H](C)[C@H](O)[C@@H](O)[C@@H]6O)C(C)(C)[C@@H]5CC[C@]43C)[C@H]12
REMARK SMILES IDX 1 1 2 2 3 3 4 4 5 5 6 6 7 7 11 8 12 9 13 10 17 11 18 12
REMARK SMILES IDX 19 13 20 14 21 15 22 16 23 17 24 18 25 19 37 20 38 21 39 22
REMARK SMILES IDX 40 23 41 24 42 25 43 26 44 27 45 28 8 29 9 30 10 31 14 33
REMARK SMILES IDX 15 34 16 35 26 37 27 38 28 39 35 40 29 41 33 42 31 43 30 44
REMARK SMILES IDX 36 45 34 47 32 49
REMARK H PARENT 10 32 16 36 36 46 34 48 32 50
ROOT
ATOM      1  C   UNL     1      -4.451  -3.429   0.000  1.00  0.00     0.008 C 
ATOM      2  C   UNL     1      -5.464  -2.322   0.000  1.00  0.00    -0.003 C 
ATOM      3  C   UNL     1      -6.928  -2.647   0.000  1.00  0.00    -0.011 C 
ATOM      4  C   UNL     1      -7.380  -4.077   0.000  1.00  0.00     0.008 C 
ATOM      5  C   UNL     1      -7.941  -1.540   0.000  1.00  0.00     0.005 C 
ATOM      6  C   UNL     1      -7.489  -0.110   0.000  1.00  0.00     0.020 C 
ATOM      7  C   UNL     1      -6.025   0.214   0.000  1.00  0.00     0.075 C 
ATOM      8  C   UNL     1      -5.573   1.645   0.000  1.00  0.00     0.021 C 
ATOM      9  C   UNL     1      -4.109   1.969   0.000  1.00  0.00     0.025 C 
ATOM     10  C   UNL     1      -3.096   0.862   0.000  1.00  0.00     0.095 C 
ATOM     11  C   UNL     1      -3.547  -0.568   0.000  1.00  0.00    -0.052 C 
ATOM     12  C   UNL     1      -2.534  -1.674   0.000  1.00  0.00    -0.026 C 
ATOM     13  C   UNL     1      -1.070  -1.350   0.000  1.00  0.00     0.032 C 
ATOM     14  C   UNL     1      -0.618   0.080   0.000  1.00  0.00     0.006 C 
ATOM     15  C   UNL     1       0.846   0.404   0.000  1.00  0.00    -0.025 C 
ATOM     16  C   UNL     1       0.395  -1.026   0.000  1.00  0.00     0.012 C 
ATOM     17  C   UNL     1       1.859  -0.702   0.000  1.00  0.00     0.010 C 
ATOM     18  C   UNL     1       3.324  -0.378   0.000  1.00  0.00     0.033 C 
ATOM     19  C   UNL     1       3.776   1.052   0.000  1.00  0.00     0.127 C 
ATOM     20  C   UNL     1       2.763   2.159   0.000  1.00  0.00    -0.006 C 
ATOM     21  C   UNL     1       2.189   3.545   0.000  1.00  0.00     0.014 C 
ATOM     22  C   UNL     1       4.028   2.964   0.000  1.00  0.00     0.014 C 
ATOM     23  C   UNL     1       1.298   1.835   0.000  1.00  0.00     0.003 C 
ATOM     24  C   UNL     1       0.285   2.941   0.000  1.00  0.00     0.005 C 
ATOM     25  C   UNL     1      -1.179   2.617   0.000  1.00  0.00     0.009 C 
ATOM     26  C   UNL     1      -1.631   1.187   0.000  1.00  0.00    -0.009 C 
ATOM     27  C   UNL     1      -2.644   2.293   0.000  1.00  0.00     0.013 C 
ATOM     28  C   UNL     1      -5.012  -0.892   0.000  1.00  0.00     0.036 C 
ENDROOT
BRANCH   7  29
ATOM     29  C   UNL     1      -7.038   1.321   0.000  1.00  0.00     0.310 C 
ATOM     30  O   UNL     1      -8.502   0.997   0.000  1.00  0.00    -0.252 OA
BRANCH  29  31
ATOM     31  O   UNL     1      -6.586   2.751   0.000  1.00  0.00    -0.481 OA
ATOM     32  H   UNL     1       0.000   0.000   0.000  1.00  0.00     0.296 HD
ENDBRANCH  29  31
ENDBRANCH   7  29
BRANCH  10  33
ATOM     33  C   UNL     1      -2.083  -0.244   0.000  1.00  0.00     0.314 C 
ATOM     34  O   UNL     1      -0.583  -0.284   0.000  1.00  0.00    -0.251 OA
BRANCH  33  35
ATOM     35  O   UNL     1      -2.132  -1.040   0.000  1.00  0.00    -0.481 OA
ATOM     36  H   UNL     1       0.000   0.000   0.000  1.00  0.00     0.296 HD
ENDBRANCH  33  35
ENDBRANCH  10  33
BRANCH  19  37
ATOM     37  O   UNL     1       5.240   1.376   0.000  1.00  0.00    -0.346 OA
BRANCH  37  38
ATOM     38  C   UNL     1       6.253   0.270   0.000  1.00  0.00     0.282 C 
ATOM     39  O   UNL     1       5.801  -1.160   0.000  1.00  0.00    -0.344 OA
ATOM     40  C   UNL     1       7.718   0.594   0.000  1.00  0.00     0.202 C 
ATOM     41  C   UNL     1       6.814  -2.267   0.000  1.00  0.00     0.150 C 
ATOM     42  C   UNL     1       8.730  -0.512   0.000  1.00  0.00     0.179 C 
ATOM     43  C   UNL     1       8.279  -1.943   0.000  1.00  0.00     0.174 C 
ATOM     44  C   UNL     1       6.363  -3.697   0.000  1.00  0.00     0.041 C 
BRANCH  40  45
ATOM     45  O   UNL     1       8.169   2.025   0.000  1.00  0.00    -0.385 OA
ATOM     46  H   UNL     1       0.000   0.000   0.000  1.00  0.00     0.211 HD
ENDBRANCH  40  45
BRANCH  42  47
ATOM     47  O   UNL     1      10.195  -0.188   0.000  1.00  0.00    -0.387 OA
ATOM     48  H   UNL     1       0.000   0.000   0.000  1.00  0.00     0.211 HD
ENDBRANCH  42  47
BRANCH  43  49
ATOM     49  O   UNL     1       9.292  -3.049   0.000  1.00  0.00    -0.388 OA
ATOM     50  H   UNL     1       0.000   0.000   0.000  1.00  0.00     0.211 HD
ENDBRANCH  43  49
ENDBRANCH  37  38
ENDBRANCH  19  37
TORSDOF 9
