REMARK SMILES C=CC[C@@]12CC=CC(=O)[C@@]1(O)O[C@@H](c1ccc3c(c1)OCO3)[C@H]2C
REMARK SMILES IDX 4 1 5 2 6 3 7 4 8 5 9 6 10 7 12 8 13 9 23 10 24 11 3 12 2 13
REMARK SMILES IDX 1 14 11 15 14 17 15 18 19 19 16 20 18 21 17 22 20 23 22 24
REMARK SMILES IDX 21 25
REMARK H PARENT 11 16
ROOT
ATOM      1  C   UNL     1       2.243  -0.223   0.000  1.00  0.00     0.045 C 
ATOM      2  C   UNL     1       3.658  -0.721   0.000  1.00  0.00     0.041 C 
ATOM      3  C   UNL     1       4.797   0.255   0.000  1.00  0.00    -0.022 C 
ATOM      4  C   UNL     1       4.521   1.730   0.000  1.00  0.00     0.049 C 
ATOM      5  C   UNL     1       3.106   2.228   0.000  1.00  0.00     0.215 C 
ATOM      6  O   UNL     1       2.830   3.703   0.000  1.00  0.00    -0.289 OA
ATOM      7  C   UNL     1       1.967   1.252   0.000  1.00  0.00     0.237 C 
ATOM      8  O   UNL     1       0.480   1.445   0.000  1.00  0.00    -0.335 OA
ATOM      9  C   UNL     1      -0.164   0.090   0.000  1.00  0.00     0.156 C 
ATOM     10  C   UNL     1       0.926  -0.941   0.000  1.00  0.00     0.032 C 
ATOM     11  C   UNL     1       0.733  -2.428   0.000  1.00  0.00     0.011 C 
ENDROOT
BRANCH   1  12
ATOM     12  C   UNL     1       2.363  -1.718   0.000  1.00  0.00     0.040 C 
BRANCH  12  13
ATOM     13  C   UNL     1       3.718  -2.361   0.000  1.00  0.00    -0.034 C 
ATOM     14  C   UNL     1       3.839  -3.856   0.000  1.00  0.00     0.004 C 
ENDBRANCH  12  13
ENDBRANCH   1  12
BRANCH   7  15
ATOM     15  O   UNL     1       1.539   2.689   0.000  1.00  0.00    -0.359 OA
ATOM     16  H   UNL     1       0.000   0.000   0.000  1.00  0.00     0.214 HD
ENDBRANCH   7  15
BRANCH   9  17
ATOM     17  C   UNL     1      -1.638  -0.186   0.000  1.00  0.00    -0.015 A 
ATOM     18  C   UNL     1      -2.136  -1.601   0.000  1.00  0.00     0.010 A 
ATOM     19  C   UNL     1      -2.614   0.953   0.000  1.00  0.00     0.057 A 
ATOM     20  C   UNL     1      -3.611  -1.877   0.000  1.00  0.00     0.051 A 
ATOM     21  C   UNL     1      -4.089   0.677   0.000  1.00  0.00     0.166 A 
ATOM     22  C   UNL     1      -4.587  -0.738   0.000  1.00  0.00     0.165 A 
ATOM     23  O   UNL     1      -5.280   1.588   0.000  1.00  0.00    -0.454 OA
ATOM     24  O   UNL     1      -6.087  -0.701   0.000  1.00  0.00    -0.454 OA
ATOM     25  C   UNL     1      -6.515   0.737   0.000  1.00  0.00     0.468 C 
ENDBRANCH   9  17
TORSDOF 4
