REMARK SMILES CCCCCCC1CCCCC1
REMARK SMILES IDX 4 1 3 2 2 3 1 4 5 5 6 6 7 7 8 8 12 9 9 10 11 11 10 12
REMARK H PARENT
ROOT
ATOM      1  C   UNL     1      -2.382  -0.612   0.000  1.00  0.00     0.000 C 
ENDROOT
BRANCH   1   2
ATOM      2  C   UNL     1      -3.564   0.311   0.000  1.00  0.00    -0.000 C 
BRANCH   2   3
ATOM      3  C   UNL     1      -4.955  -0.250   0.000  1.00  0.00    -0.003 C 
ATOM      4  C   UNL     1      -6.136   0.673   0.000  1.00  0.00     0.004 C 
ENDBRANCH   2   3
ENDBRANCH   1   2
BRANCH   1   5
ATOM      5  C   UNL     1      -0.991  -0.050   0.000  1.00  0.00     0.000 C 
BRANCH   5   6
ATOM      6  C   UNL     1       0.191  -0.974   0.000  1.00  0.00     0.003 C 
BRANCH   6   7
ATOM      7  C   UNL     1       1.582  -0.412   0.000  1.00  0.00    -0.011 C 
ATOM      8  C   UNL     1       1.791   1.074   0.000  1.00  0.00     0.003 C 
ATOM      9  C   UNL     1       2.764  -1.335   0.000  1.00  0.00     0.003 C 
ATOM     10  C   UNL     1       3.181   1.636   0.000  1.00  0.00     0.000 C 
ATOM     11  C   UNL     1       4.155  -0.773   0.000  1.00  0.00     0.000 C 
ATOM     12  C   UNL     1       4.364   0.712   0.000  1.00  0.00     0.000 C 
ENDBRANCH   6   7
ENDBRANCH   5   6
ENDBRANCH   1   5
TORSDOF 5
