REMARK SMILES COc1ccc2[nH]c3c(c2c1)CCN(C)C3
REMARK SMILES IDX 3 1 4 2 5 3 6 4 7 5 8 6 9 7 12 8 13 9 14 10 15 11 16 12
REMARK SMILES IDX 10 13 11 14 2 16 1 17
REMARK H PARENT 7 15
ROOT
ATOM      1  C   UNL     1      -3.059  -0.474   0.000  1.00  0.00     0.119 A 
ATOM      2  C   UNL     1      -3.257   1.012   0.000  1.00  0.00     0.048 A 
ATOM      3  C   UNL     1      -2.069   1.927   0.000  1.00  0.00     0.030 A 
ATOM      4  C   UNL     1      -0.682   1.356   0.000  1.00  0.00     0.046 A 
ATOM      5  N   UNL     1       0.671   2.004   0.000  1.00  0.00    -0.357 N 
ATOM      6  C   UNL     1       1.705   0.917   0.000  1.00  0.00     0.033 A 
ATOM      7  C   UNL     1       0.992  -0.402   0.000  1.00  0.00    -0.017 A 
ATOM      8  C   UNL     1       1.777  -1.680   0.000  1.00  0.00     0.053 C 
ATOM      9  C   UNL     1       3.277  -1.638   0.000  1.00  0.00     0.089 C 
ATOM     10  N   UNL     1       3.990  -0.319   0.000  1.00  0.00    -0.300 NA
ATOM     11  C   UNL     1       5.490  -0.277   0.000  1.00  0.00     0.105 C 
ATOM     12  C   UNL     1       3.204   0.959   0.000  1.00  0.00     0.138 C 
ATOM     13  C   UNL     1      -0.484  -0.131   0.000  1.00  0.00     0.007 A 
ATOM     14  C   UNL     1      -1.672  -1.046   0.000  1.00  0.00     0.057 A 
ATOM     15  H   UNL     1       0.000   0.000   0.000  1.00  0.00     0.166 HD
ENDROOT
BRANCH   1  16
ATOM     16  O   UNL     1      -4.248  -1.389   0.000  1.00  0.00    -0.497 OA
ATOM     17  C   UNL     1      -5.635  -0.818   0.000  1.00  0.00     0.278 C 
ENDBRANCH   1  16
TORSDOF 1
