REMARK SMILES COc1c(O)cc2occ(-c3ccc(O)cc3)c(=O)c2c1O
REMARK SMILES IDX 3 1 4 2 6 3 7 4 8 5 9 6 10 7 18 8 19 9 20 10 21 11 2 12 1 13
REMARK SMILES IDX 5 14 22 16 11 18 12 19 17 20 13 21 16 22 14 23 15 24
REMARK H PARENT 5 15 22 17 15 25
ROOT
ATOM      1  C   UNL     1      -3.835   0.471   0.000  1.00  0.00     0.203 A 
ATOM      2  C   UNL     1      -4.187  -0.986   0.000  1.00  0.00     0.165 A 
ATOM      3  C   UNL     1      -3.101  -2.021   0.000  1.00  0.00     0.098 A 
ATOM      4  C   UNL     1      -1.662  -1.597   0.000  1.00  0.00     0.145 A 
ATOM      5  O   UNL     1      -0.576  -2.632   0.000  1.00  0.00    -0.463 OA
ATOM      6  C   UNL     1       0.863  -2.208   0.000  1.00  0.00     0.208 A 
ATOM      7  C   UNL     1       1.216  -0.750   0.000  1.00  0.00     0.065 A 
ATOM      8  C   UNL     1       0.130   0.284   0.000  1.00  0.00     0.204 A 
ATOM      9  O   UNL     1       0.482   1.742   0.000  1.00  0.00    -0.288 OA
ATOM     10  C   UNL     1      -1.309  -0.139   0.000  1.00  0.00     0.111 A 
ATOM     11  C   UNL     1      -2.396   0.895   0.000  1.00  0.00     0.176 A 
ENDROOT
BRANCH   1  12
ATOM     12  O   UNL     1      -4.921   1.506   0.000  1.00  0.00    -0.490 OA
ATOM     13  C   UNL     1      -4.568   2.964   0.000  1.00  0.00     0.278 C 
ENDBRANCH   1  12
BRANCH   2  14
ATOM     14  O   UNL     1      -5.626  -1.410   0.000  1.00  0.00    -0.504 OA
ATOM     15  H   UNL     1       0.000   0.000   0.000  1.00  0.00     0.293 HD
ENDBRANCH   2  14
BRANCH  11  16
ATOM     16  O   UNL     1      -2.043   2.353   0.000  1.00  0.00    -0.504 OA
ATOM     17  H   UNL     1       0.000   0.000   0.000  1.00  0.00     0.293 HD
ENDBRANCH  11  16
BRANCH   7  18
ATOM     18  C   UNL     1       2.655  -0.326   0.000  1.00  0.00    -0.011 A 
ATOM     19  C   UNL     1       3.741  -1.361   0.000  1.00  0.00     0.013 A 
ATOM     20  C   UNL     1       3.007   1.131   0.000  1.00  0.00     0.013 A 
ATOM     21  C   UNL     1       5.180  -0.937   0.000  1.00  0.00     0.047 A 
ATOM     22  C   UNL     1       4.446   1.555   0.000  1.00  0.00     0.047 A 
ATOM     23  C   UNL     1       5.533   0.521   0.000  1.00  0.00     0.115 A 
BRANCH  23  24
ATOM     24  O   UNL     1       6.972   0.944   0.000  1.00  0.00    -0.508 OA
ATOM     25  H   UNL     1       0.000   0.000   0.000  1.00  0.00     0.293 HD
ENDBRANCH  23  24
ENDBRANCH   7  18
TORSDOF 5
