REMARK SMILES Cc1ccc(C(C)C)cc2c(C)ccc1-2
REMARK SMILES IDX 1 1 2 2 3 3 4 4 5 5 9 6 10 7 11 8 12 9 13 10 14 11 15 12
REMARK SMILES IDX 6 13 7 14 8 15
REMARK H PARENT
ROOT
ATOM      1  C   UNL     1      -2.079   3.067   0.000  1.00  0.00     0.045 C 
ATOM      2  C   UNL     1      -1.054   1.972   0.000  1.00  0.00    -0.043 A 
ATOM      3  C   UNL     1       0.377   2.421   0.000  1.00  0.00     0.004 A 
ATOM      4  C   UNL     1       1.621   1.582   0.000  1.00  0.00     0.004 A 
ATOM      5  C   UNL     1       1.740   0.086   0.000  1.00  0.00    -0.045 A 
ATOM      6  C   UNL     1       0.645  -0.939   0.000  1.00  0.00     0.013 A 
ATOM      7  C   UNL     1      -0.839  -0.722   0.000  1.00  0.00    -0.015 A 
ATOM      8  C   UNL     1      -1.838  -1.842   0.000  1.00  0.00    -0.043 A 
ATOM      9  C   UNL     1      -1.519  -3.308   0.000  1.00  0.00     0.045 C 
ATOM     10  C   UNL     1      -3.211  -1.238   0.000  1.00  0.00     0.005 A 
ATOM     11  C   UNL     1      -3.061   0.255   0.000  1.00  0.00     0.009 A 
ATOM     12  C   UNL     1      -1.595   0.573   0.000  1.00  0.00    -0.015 A 
ENDROOT
BRANCH   5  13
ATOM     13  C   UNL     1       3.139  -0.455   0.000  1.00  0.00     0.013 C 
ATOM     14  C   UNL     1       3.369  -1.937   0.000  1.00  0.00     0.012 C 
ATOM     15  C   UNL     1       4.307   0.486   0.000  1.00  0.00     0.012 C 
ENDBRANCH   5  13
TORSDOF 1
