REMARK SMILES CC(C)=C1CC[C@H](C)C2=C(C1)[C@@H](C)CC2
REMARK SMILES IDX 11 1 4 2 2 3 1 4 3 5 5 6 6 7 10 9 9 10 12 11 15 12 14 13
REMARK SMILES IDX 13 14 7 15 8 16
REMARK H PARENT
REMARK Flexibility Score:    8.900
ROOT
ATOM      1  C   UNL     1       0.645  -0.939   0.000  1.00  0.00     0.062 C 
ENDROOT
BRANCH   1   2
ATOM      2  C   UNL     1       1.740   0.086   0.000  1.00  0.00    -0.067 C 
BRANCH   2   3
ATOM      3  C   UNL     1       3.139  -0.455   0.000  1.00  0.00    -0.077 C 
ATOM      4  C   UNL     1       3.369  -1.937   0.000  1.00  0.00     0.039 C 
ATOM      5  C   UNL     1       4.307   0.486   0.000  1.00  0.00     0.039 C 
ENDBRANCH   2   3
BRANCH   2   6
ATOM      6  C   UNL     1       1.621   1.582   0.000  1.00  0.00     0.032 C 
BRANCH   6   7
ATOM      7  C   UNL     1       0.377   2.421   0.000  1.00  0.00     0.012 CG0
ATOM      8  G   UNL     1      -1.054   1.972   0.000  1.00  0.00     0.000 G0
ENDBRANCH   6   7
ENDBRANCH   2   6
ENDBRANCH   1   2
BRANCH   1   9
ATOM      9  C   UNL     1      -0.839  -0.722   0.000  1.00  0.00    -0.064 C 
ATOM     10  C   UNL     1      -1.595   0.573   0.000  1.00  0.00    -0.068 C 
ATOM     11  C   UNL     1      -1.838  -1.842   0.000  1.00  0.00     0.012 C 
ATOM     12  C   UNL     1      -3.061   0.255   0.000  1.00  0.00     0.032 C 
ATOM     13  C   UNL     1      -3.211  -1.238   0.000  1.00  0.00     0.012 C 
ATOM     14  C   UNL     1      -1.519  -3.308   0.000  1.00  0.00     0.012 C 
BRANCH  10  15
ATOM     15  C   UNL     1      -1.054   1.972   0.000  1.00  0.00     0.012 CG0
ATOM     16  C   UNL     1      -2.079   3.067   0.000  1.00  0.00     0.012 C 
ATOM     17  G   UNL     1       0.377   2.421   0.000  1.00  0.00     0.000 G0
ENDBRANCH  10  15
ENDBRANCH   1   9
TORSDOF 1
