REMARK SMILES C=C[C@]1(C)CC2=C(C(=O)[C@H]1O)[C@@]1(C)CCCC(C)(C)[C@@H]1CC2=O
REMARK SMILES IDX 3 1 4 2 5 3 6 4 7 5 8 6 9 7 10 8 12 9 13 10 14 11 15 12
REMARK SMILES IDX 16 13 17 14 18 15 19 16 20 17 21 18 22 19 23 20 2 21 1 22
REMARK SMILES IDX 11 23
REMARK H PARENT 11 24
ROOT
ATOM      1  C   UNL     1      -3.200   0.029   0.000  1.00  0.00     0.023 C 
ATOM      2  C   UNL     1      -4.472  -0.765   0.000  1.00  0.00     0.019 C 
ATOM      3  C   UNL     1      -2.276   1.210   0.000  1.00  0.00     0.053 C 
ATOM      4  C   UNL     1      -0.790   1.001   0.000  1.00  0.00     0.003 C 
ATOM      5  C   UNL     1      -0.229  -0.390   0.000  1.00  0.00     0.011 C 
ATOM      6  C   UNL     1      -1.153  -1.572   0.000  1.00  0.00     0.189 C 
ATOM      7  O   UNL     1      -0.592  -2.963   0.000  1.00  0.00    -0.292 OA
ATOM      8  C   UNL     1      -2.639  -1.362   0.000  1.00  0.00     0.195 C 
ATOM      9  C   UNL     1       1.256  -0.600   0.000  1.00  0.00     0.000 C 
ATOM     10  C   UNL     1       0.332  -1.782   0.000  1.00  0.00     0.017 C 
ATOM     11  C   UNL     1       1.817  -1.991   0.000  1.00  0.00     0.012 C 
ATOM     12  C   UNL     1       3.303  -2.201   0.000  1.00  0.00     0.001 C 
ATOM     13  C   UNL     1       4.227  -1.019   0.000  1.00  0.00     0.007 C 
ATOM     14  C   UNL     1       3.666   0.372   0.000  1.00  0.00    -0.031 C 
ATOM     15  C   UNL     1       3.614   1.871   0.000  1.00  0.00     0.011 C 
ATOM     16  C   UNL     1       5.133   0.683   0.000  1.00  0.00     0.011 C 
ATOM     17  C   UNL     1       2.180   0.581   0.000  1.00  0.00     0.013 C 
ATOM     18  C   UNL     1       1.619   1.972   0.000  1.00  0.00     0.085 C 
ATOM     19  C   UNL     1       0.134   2.182   0.000  1.00  0.00     0.159 C 
ATOM     20  O   UNL     1      -0.427   3.573   0.000  1.00  0.00    -0.295 OA
ENDROOT
BRANCH   1  21
ATOM     21  C   UNL     1      -4.203   1.144   0.000  1.00  0.00    -0.025 C 
ATOM     22  C   UNL     1      -3.738   2.570   0.000  1.00  0.00     0.005 C 
ENDBRANCH   1  21
BRANCH   8  23
ATOM     23  O   UNL     1      -3.563  -2.544   0.000  1.00  0.00    -0.384 OA
ATOM     24  H   UNL     1       0.000   0.000   0.000  1.00  0.00     0.211 HD
ENDBRANCH   8  23
TORSDOF 2
