REMARK SMILES CC(C)[C@@H]1NC(=O)[C@@H]2CCCN2C1=O
REMARK SMILES IDX 4 1 5 2 6 3 7 4 8 5 9 6 10 7 11 8 12 9 13 10 14 11 2 13 1 14
REMARK SMILES IDX 3 15
REMARK H PARENT 5 12
ROOT
ATOM      1  C   UNL     1       1.336  -0.192   0.000  1.00  0.00     0.174 C 
ATOM      2  N   UNL     1       0.719  -1.559   0.000  1.00  0.00    -0.342 N 
ATOM      3  C   UNL     1      -0.773  -1.708   0.000  1.00  0.00     0.243 C 
ATOM      4  O   UNL     1      -1.390  -3.075   0.000  1.00  0.00    -0.273 OA
ATOM      5  C   UNL     1      -1.649  -0.490   0.000  1.00  0.00     0.174 C 
ATOM      6  C   UNL     1      -3.140  -0.326   0.000  1.00  0.00     0.037 C 
ATOM      7  C   UNL     1      -3.445   1.143   0.000  1.00  0.00     0.024 C 
ATOM      8  C   UNL     1      -2.142   1.886   0.000  1.00  0.00     0.120 C 
ATOM      9  N   UNL     1      -1.032   0.877   0.000  1.00  0.00    -0.329 N 
ATOM     10  C   UNL     1       0.461   1.026   0.000  1.00  0.00     0.246 C 
ATOM     11  O   UNL     1       1.077   2.394   0.000  1.00  0.00    -0.272 OA
ATOM     12  H   UNL     1       0.000   0.000   0.000  1.00  0.00     0.164 HD
ENDROOT
BRANCH   1  13
ATOM     13  C   UNL     1       2.829  -0.042   0.000  1.00  0.00     0.015 C 
ATOM     14  C   UNL     1       3.704  -1.260   0.000  1.00  0.00     0.010 C 
ATOM     15  C   UNL     1       3.446   1.325   0.000  1.00  0.00     0.010 C 
ENDBRANCH   1  13
TORSDOF 1
