REMARK SMILES CCCCCOC(=O)c1cc(O)c(O)c(O)c1
REMARK SMILES IDX 5 1 4 2 3 3 2 4 1 5 6 6 7 7 8 8 9 9 10 10 17 11 11 12 15 13
REMARK SMILES IDX 13 14 12 15 16 17 14 19
REMARK H PARENT 12 16 16 18 14 20
ROOT
ATOM      1  C   UNL     1      -2.809  -0.540   0.000  1.00  0.00     0.233 C 
ENDROOT
BRANCH   1   2
ATOM      2  C   UNL     1      -3.960   0.422   0.000  1.00  0.00     0.042 C 
BRANCH   2   3
ATOM      3  C   UNL     1      -5.369  -0.094   0.000  1.00  0.00     0.003 C 
BRANCH   3   4
ATOM      4  C   UNL     1      -6.519   0.869   0.000  1.00  0.00    -0.003 C 
ATOM      5  C   UNL     1      -7.928   0.353   0.000  1.00  0.00     0.004 C 
ENDBRANCH   3   4
ENDBRANCH   2   3
ENDBRANCH   1   2
BRANCH   1   6
ATOM      6  O   UNL     1      -1.401  -0.024   0.000  1.00  0.00    -0.462 OA
BRANCH   6   7
ATOM      7  C   UNL     1      -0.250  -0.987   0.000  1.00  0.00     0.338 C 
ATOM      8  O   UNL     1      -0.507  -2.464   0.000  1.00  0.00    -0.246 OA
BRANCH   7   9
ATOM      9  C   UNL     1       1.159  -0.471   0.000  1.00  0.00     0.067 A 
ATOM     10  C   UNL     1       1.417   1.007   0.000  1.00  0.00     0.066 A 
ATOM     11  C   UNL     1       2.310  -1.433   0.000  1.00  0.00     0.066 A 
ATOM     12  C   UNL     1       2.825   1.522   0.000  1.00  0.00     0.162 A 
ATOM     13  C   UNL     1       3.718  -0.917   0.000  1.00  0.00     0.162 A 
ATOM     14  C   UNL     1       3.976   0.560   0.000  1.00  0.00     0.200 A 
BRANCH  12  15
ATOM     15  O   UNL     1       3.083   3.000   0.000  1.00  0.00    -0.504 OA
ATOM     16  H   UNL     1       0.000   0.000   0.000  1.00  0.00     0.293 HD
ENDBRANCH  12  15
BRANCH  13  17
ATOM     17  O   UNL     1       4.869  -1.879   0.000  1.00  0.00    -0.504 OA
ATOM     18  H   UNL     1       0.000   0.000   0.000  1.00  0.00     0.293 HD
ENDBRANCH  13  17
BRANCH  14  19
ATOM     19  O   UNL     1       5.385   1.076   0.000  1.00  0.00    -0.502 OA
ATOM     20  H   UNL     1       0.000   0.000   0.000  1.00  0.00     0.293 HD
ENDBRANCH  14  19
ENDBRANCH   7   9
ENDBRANCH   6   7
ENDBRANCH   1   6
TORSDOF 9
