REMARK SMILES COc1cc(OC)c2oc(=O)c(CC(C)=O)cc2c1
REMARK SMILES IDX 3 1 4 2 5 3 8 4 9 5 10 6 11 7 12 8 17 9 18 10 19 11 2 12
REMARK SMILES IDX 1 13 6 14 7 15 13 16 14 17 15 18 16 19
REMARK H PARENT
ROOT
ATOM      1  C   UNL     1      -2.541  -1.542   0.000  1.00  0.00     0.123 A 
ATOM      2  C   UNL     1      -3.123  -0.159   0.000  1.00  0.00     0.096 A 
ATOM      3  C   UNL     1      -2.217   1.036   0.000  1.00  0.00     0.165 A 
ATOM      4  C   UNL     1      -0.729   0.849   0.000  1.00  0.00     0.180 A 
ATOM      5  O   UNL     1       0.177   2.045   0.000  1.00  0.00    -0.419 OA
ATOM      6  C   UNL     1       1.665   1.858   0.000  1.00  0.00     0.340 A 
ATOM      7  O   UNL     1       2.571   3.054   0.000  1.00  0.00    -0.246 OA
ATOM      8  C   UNL     1       2.248   0.476   0.000  1.00  0.00     0.046 A 
ATOM      9  C   UNL     1       1.342  -0.720   0.000  1.00  0.00     0.024 A 
ATOM     10  C   UNL     1      -0.146  -0.533   0.000  1.00  0.00     0.025 A 
ATOM     11  C   UNL     1      -1.052  -1.728   0.000  1.00  0.00     0.058 A 
ENDROOT
BRANCH   1  12
ATOM     12  O   UNL     1      -3.447  -2.737   0.000  1.00  0.00    -0.497 OA
ATOM     13  C   UNL     1      -4.935  -2.550   0.000  1.00  0.00     0.278 C 
ENDBRANCH   1  12
BRANCH   3  14
ATOM     14  O   UNL     1      -2.800   2.419   0.000  1.00  0.00    -0.493 OA
ATOM     15  C   UNL     1      -4.288   2.605   0.000  1.00  0.00     0.278 C 
ENDBRANCH   3  14
BRANCH   8  16
ATOM     16  C   UNL     1       3.736   0.289   0.000  1.00  0.00     0.118 C 
BRANCH  16  17
ATOM     17  C   UNL     1       4.319  -1.093   0.000  1.00  0.00     0.134 C 
ATOM     18  C   UNL     1       5.807  -1.280   0.000  1.00  0.00     0.088 C 
ATOM     19  O   UNL     1       3.413  -2.289   0.000  1.00  0.00    -0.300 OA
ENDBRANCH  16  17
ENDBRANCH   8  16
TORSDOF 4
