REMARK SMILES C=CCOc1c(OC)cc2c(c1OC)O[C@H](c1cc(OC)c3c(c1)OCO3)[C@H]2C
REMARK SMILES IDX 5 1 6 2 9 3 10 4 11 5 12 6 15 7 16 8 28 9 29 10 4 11 3 12
REMARK SMILES IDX 2 13 1 14 7 15 8 16 13 17 14 18 17 19 18 20 24 21 19 22
REMARK SMILES IDX 23 23 22 24 25 25 27 26 26 27 20 28 21 29
REMARK H PARENT
ROOT
ATOM      1  C   UNL     1       3.836   0.510   0.000  1.00  0.00     0.207 A 
ATOM      2  C   UNL     1       3.528   1.978   0.000  1.00  0.00     0.165 A 
ATOM      3  C   UNL     1       2.103   2.446   0.000  1.00  0.00     0.058 A 
ATOM      4  C   UNL     1       0.985   1.445   0.000  1.00  0.00     0.009 A 
ATOM      5  C   UNL     1       1.293  -0.023   0.000  1.00  0.00     0.169 A 
ATOM      6  C   UNL     1       2.719  -0.490   0.000  1.00  0.00     0.207 A 
ATOM      7  O   UNL     1      -0.008  -0.770   0.000  1.00  0.00    -0.481 OA
ATOM      8  C   UNL     1      -1.120   0.237   0.000  1.00  0.00     0.211 C 
ATOM      9  C   UNL     1      -0.506   1.606   0.000  1.00  0.00     0.066 C 
ATOM     10  C   UNL     1      -1.253   2.907   0.000  1.00  0.00     0.017 C 
ENDROOT
BRANCH   1  11
ATOM     11  O   UNL     1       5.261   0.043   0.000  1.00  0.00    -0.482 OA
BRANCH  11  12
ATOM     12  C   UNL     1       5.569  -1.425   0.000  1.00  0.00     0.257 C 
BRANCH  12  13
ATOM     13  C   UNL     1       6.995  -1.893   0.000  1.00  0.00     0.006 C 
ATOM     14  C   UNL     1       7.303  -3.361   0.000  1.00  0.00     0.007 C 
ENDBRANCH  12  13
ENDBRANCH  11  12
ENDBRANCH   1  11
BRANCH   2  15
ATOM     15  O   UNL     1       4.645   2.979   0.000  1.00  0.00    -0.493 OA
ATOM     16  C   UNL     1       6.071   2.512   0.000  1.00  0.00     0.278 C 
ENDBRANCH   2  15
BRANCH   6  17
ATOM     17  O   UNL     1       3.026  -1.958   0.000  1.00  0.00    -0.490 OA
ATOM     18  C   UNL     1       4.452  -2.426   0.000  1.00  0.00     0.278 C 
ENDBRANCH   6  17
BRANCH   8  19
ATOM     19  C   UNL     1      -2.588  -0.071   0.000  1.00  0.00     0.001 A 
ATOM     20  C   UNL     1      -3.589   1.046   0.000  1.00  0.00     0.058 A 
ATOM     21  C   UNL     1      -3.055  -1.496   0.000  1.00  0.00     0.058 A 
ATOM     22  C   UNL     1      -5.057   0.739   0.000  1.00  0.00     0.165 A 
ATOM     23  C   UNL     1      -4.523  -1.804   0.000  1.00  0.00     0.170 A 
ATOM     24  C   UNL     1      -5.524  -0.687   0.000  1.00  0.00     0.207 A 
ATOM     25  O   UNL     1      -5.277  -3.101   0.000  1.00  0.00    -0.453 OA
ATOM     26  O   UNL     1      -6.896  -1.293   0.000  1.00  0.00    -0.450 OA
ATOM     27  C   UNL     1      -6.743  -2.785   0.000  1.00  0.00     0.468 C 
BRANCH  22  28
ATOM     28  O   UNL     1      -6.057   1.856   0.000  1.00  0.00    -0.493 OA
ATOM     29  C   UNL     1      -5.590   3.281   0.000  1.00  0.00     0.278 C 
ENDBRANCH  22  28
ENDBRANCH   8  19
TORSDOF 7
