REMARK SMILES Cc1cc2c(cc1O)[C@@H](C)CC[C@H]2[C@@H](C)CO
REMARK SMILES IDX 14 1 15 2 13 3 2 4 3 5 7 6 4 7 6 8 5 9 9 10 12 11 11 12 1 13
REMARK SMILES IDX 10 14 8 15 16 17 17 18
REMARK H PARENT 8 16 17 19
ROOT
ATOM      1  C   UNL     1      -2.672  -0.171   0.000  1.00  0.00     0.019 C 
ATOM      2  C   UNL     1      -4.048   0.427   0.000  1.00  0.00     0.011 C 
ENDROOT
BRANCH   1   3
ATOM      3  C   UNL     1      -1.466   0.721   0.000  1.00  0.00     0.024 C 
ATOM      4  C   UNL     1       1.455  -1.966   0.000  1.00  0.00    -0.009 A 
ATOM      5  C   UNL     1       0.079  -1.367   0.000  1.00  0.00     0.011 A 
ATOM      6  C   UNL     1       2.660  -1.073   0.000  1.00  0.00     0.118 A 
ATOM      7  C   UNL     1      -0.091   0.123   0.000  1.00  0.00    -0.041 A 
ATOM      8  C   UNL     1       2.490   0.417   0.000  1.00  0.00     0.050 A 
ATOM      9  C   UNL     1       1.115   1.015   0.000  1.00  0.00    -0.038 A 
ATOM     10  C   UNL     1       0.945   2.506   0.000  1.00  0.00     0.016 C 
ATOM     11  C   UNL     1      -1.636   2.211   0.000  1.00  0.00     0.009 C 
ATOM     12  C   UNL     1      -0.431   3.104   0.000  1.00  0.00     0.009 C 
ATOM     13  C   UNL     1       1.624  -3.456   0.000  1.00  0.00     0.048 C 
ATOM     14  C   UNL     1       2.151   3.398   0.000  1.00  0.00     0.013 C 
BRANCH   6  15
ATOM     15  O   UNL     1       4.036  -1.671   0.000  1.00  0.00    -0.508 OA
ATOM     16  H   UNL     1       0.000   0.000   0.000  1.00  0.00     0.293 HD
ENDBRANCH   6  15
ENDBRANCH   1   3
BRANCH   1  17
ATOM     17  C   UNL     1      -2.502  -1.662   0.000  1.00  0.00     0.160 C 
BRANCH  17  18
ATOM     18  O   UNL     1      -3.708  -2.554   0.000  1.00  0.00    -0.396 OA
ATOM     19  H   UNL     1       0.000   0.000   0.000  1.00  0.00     0.210 HD
ENDBRANCH  17  18
ENDBRANCH   1  17
TORSDOF 4
