REMARK SMILES OC[C@@H](O)[C@H](O)[C@@H](O)[C@H](O)CO
REMARK SMILES IDX 5 1 3 2 2 3 1 4 4 6 6 8 7 10 8 11 9 13 10 14 11 16 12 17
REMARK H PARENT 1 5 4 7 6 9 8 12 10 15 12 18
ROOT
ATOM      1  C   UNL     1       0.607   0.441   0.000  1.00  0.00     0.176 C 
ENDROOT
BRANCH   1   2
ATOM      2  C   UNL     1       1.977  -0.169   0.000  1.00  0.00     0.171 C 
BRANCH   2   3
ATOM      3  C   UNL     1       3.191   0.713   0.000  1.00  0.00     0.190 C 
BRANCH   3   4
ATOM      4  O   UNL     1       4.561   0.103   0.000  1.00  0.00    -0.394 OA
ATOM      5  H   UNL     1       0.000   0.000   0.000  1.00  0.00     0.210 HD
ENDBRANCH   3   4
ENDBRANCH   2   3
BRANCH   2   6
ATOM      6  O   UNL     1       2.134  -1.661   0.000  1.00  0.00    -0.388 OA
ATOM      7  H   UNL     1       0.000   0.000   0.000  1.00  0.00     0.211 HD
ENDBRANCH   2   6
ENDBRANCH   1   2
BRANCH   1   8
ATOM      8  O   UNL     1       0.450   1.933   0.000  1.00  0.00    -0.388 OA
ATOM      9  H   UNL     1       0.000   0.000   0.000  1.00  0.00     0.211 HD
ENDBRANCH   1   8
BRANCH   1  10
ATOM     10  C   UNL     1      -0.607  -0.441   0.000  1.00  0.00     0.176 C 
BRANCH  10  11
ATOM     11  O   UNL     1      -0.450  -1.933   0.000  1.00  0.00    -0.388 OA
ATOM     12  H   UNL     1       0.000   0.000   0.000  1.00  0.00     0.211 HD
ENDBRANCH  10  11
BRANCH  10  13
ATOM     13  C   UNL     1      -1.977   0.169   0.000  1.00  0.00     0.171 C 
BRANCH  13  14
ATOM     14  O   UNL     1      -2.134   1.661   0.000  1.00  0.00    -0.388 OA
ATOM     15  H   UNL     1       0.000   0.000   0.000  1.00  0.00     0.211 HD
ENDBRANCH  13  14
BRANCH  13  16
ATOM     16  C   UNL     1      -3.191  -0.713   0.000  1.00  0.00     0.190 C 
BRANCH  16  17
ATOM     17  O   UNL     1      -4.561  -0.103   0.000  1.00  0.00    -0.394 OA
ATOM     18  H   UNL     1       0.000   0.000   0.000  1.00  0.00     0.210 HD
ENDBRANCH  16  17
ENDBRANCH  13  16
ENDBRANCH  10  13
ENDBRANCH   1  10
TORSDOF 11
