REMARK SMILES COc1cc2oc(-c3cc(O)c(OC)c(OC)c3)c(OC)c(=O)c2c(O)c1O
REMARK SMILES IDX 3 1 4 2 5 3 24 4 25 5 27 6 22 7 23 8 19 9 7 10 6 11 2 12
REMARK SMILES IDX 1 13 28 14 26 16 8 18 9 19 18 20 10 21 15 22 12 23 11 24
REMARK SMILES IDX 16 26 17 27 13 28 14 29 20 30 21 31
REMARK H PARENT 28 15 26 17 11 25
ROOT
ATOM      1  C   UNL     1       4.429  -1.681   0.000  1.00  0.00     0.168 A 
ATOM      2  C   UNL     1       2.939  -1.854   0.000  1.00  0.00     0.098 A 
ATOM      3  C   UNL     1       2.044  -0.650   0.000  1.00  0.00     0.146 A 
ATOM      4  C   UNL     1       2.639   0.727   0.000  1.00  0.00     0.115 A 
ATOM      5  C   UNL     1       4.129   0.899   0.000  1.00  0.00     0.176 A 
ATOM      6  C   UNL     1       5.024  -0.305   0.000  1.00  0.00     0.201 A 
ATOM      7  C   UNL     1       1.744   1.931   0.000  1.00  0.00     0.239 A 
ATOM      8  O   UNL     1       2.340   3.307   0.000  1.00  0.00    -0.285 OA
ATOM      9  C   UNL     1       0.255   1.758   0.000  1.00  0.00     0.210 A 
ATOM     10  C   UNL     1      -0.341   0.381   0.000  1.00  0.00     0.180 A 
ATOM     11  O   UNL     1       0.554  -0.823   0.000  1.00  0.00    -0.452 OA
ENDROOT
BRANCH   1  12
ATOM     12  O   UNL     1       5.323  -2.885   0.000  1.00  0.00    -0.493 OA
ATOM     13  C   UNL     1       4.728  -4.262   0.000  1.00  0.00     0.278 C 
ENDBRANCH   1  12
BRANCH   6  14
ATOM     14  O   UNL     1       6.514  -0.132   0.000  1.00  0.00    -0.502 OA
ATOM     15  H   UNL     1       0.000   0.000   0.000  1.00  0.00     0.293 HD
ENDBRANCH   6  14
BRANCH   5  16
ATOM     16  O   UNL     1       4.724   2.276   0.000  1.00  0.00    -0.504 OA
ATOM     17  H   UNL     1       0.000   0.000   0.000  1.00  0.00     0.293 HD
ENDBRANCH   5  16
BRANCH  10  18
ATOM     18  C   UNL     1      -1.831   0.208   0.000  1.00  0.00     0.029 A 
ATOM     19  C   UNL     1      -2.725   1.412   0.000  1.00  0.00     0.062 A 
ATOM     20  C   UNL     1      -2.426  -1.169   0.000  1.00  0.00     0.062 A 
ATOM     21  C   UNL     1      -4.215   1.239   0.000  1.00  0.00     0.162 A 
ATOM     22  C   UNL     1      -3.916  -1.342   0.000  1.00  0.00     0.165 A 
ATOM     23  C   UNL     1      -4.811  -0.138   0.000  1.00  0.00     0.203 A 
BRANCH  21  24
ATOM     24  O   UNL     1      -5.110   2.443   0.000  1.00  0.00    -0.504 OA
ATOM     25  H   UNL     1       0.000   0.000   0.000  1.00  0.00     0.293 HD
ENDBRANCH  21  24
BRANCH  22  26
ATOM     26  O   UNL     1      -4.511  -2.719   0.000  1.00  0.00    -0.493 OA
ATOM     27  C   UNL     1      -3.617  -3.922   0.000  1.00  0.00     0.278 C 
ENDBRANCH  22  26
BRANCH  23  28
ATOM     28  O   UNL     1      -6.301  -0.311   0.000  1.00  0.00    -0.490 OA
ATOM     29  C   UNL     1      -6.896  -1.687   0.000  1.00  0.00     0.278 C 
ENDBRANCH  23  28
ENDBRANCH  10  18
BRANCH   9  30
ATOM     30  O   UNL     1      -0.640   2.962   0.000  1.00  0.00    -0.490 OA
ATOM     31  C   UNL     1      -0.045   4.338   0.000  1.00  0.00     0.278 C 
ENDBRANCH   9  30
TORSDOF 8
