REMARK SMILES O=C(/C=C/c1ccc(O)c(O)c1)O[C@H]1CC[C@@H](O)[C@H]1O
REMARK SMILES IDX 1 1 2 2 3 3 4 4 5 5 6 6 12 7 7 8 10 9 8 10 11 11 9 13 13 15
REMARK SMILES IDX 14 16 15 17 19 18 16 19 17 20 20 21 18 23
REMARK H PARENT 11 12 9 14 20 22 18 24
ROOT
ATOM      1  O   UNL     1      -1.381  -1.982   0.000  1.00  0.00    -0.247 OA
ATOM      2  C   UNL     1      -1.028  -0.524   0.000  1.00  0.00     0.331 C 
ENDROOT
BRANCH   2   3
ATOM      3  C   UNL     1       0.411  -0.102   0.000  1.00  0.00     0.094 C 
BRANCH   3   4
ATOM      4  C   UNL     1       1.497  -1.137   0.000  1.00  0.00     0.016 C 
BRANCH   4   5
ATOM      5  C   UNL     1       2.936  -0.714   0.000  1.00  0.00    -0.021 A 
ATOM      6  C   UNL     1       4.022  -1.749   0.000  1.00  0.00     0.012 A 
ATOM      7  C   UNL     1       3.290   0.744   0.000  1.00  0.00     0.058 A 
ATOM      8  C   UNL     1       5.461  -1.327   0.000  1.00  0.00     0.051 A 
ATOM      9  C   UNL     1       4.729   1.166   0.000  1.00  0.00     0.157 A 
ATOM     10  C   UNL     1       5.815   0.131   0.000  1.00  0.00     0.157 A 
BRANCH   9  11
ATOM     11  O   UNL     1       5.082   2.624   0.000  1.00  0.00    -0.504 OA
ATOM     12  H   UNL     1       0.000   0.000   0.000  1.00  0.00     0.293 HD
ENDBRANCH   9  11
BRANCH  10  13
ATOM     13  O   UNL     1       7.254   0.554   0.000  1.00  0.00    -0.504 OA
ATOM     14  H   UNL     1       0.000   0.000   0.000  1.00  0.00     0.293 HD
ENDBRANCH  10  13
ENDBRANCH   4   5
ENDBRANCH   3   4
ENDBRANCH   2   3
BRANCH   2  15
ATOM     15  O   UNL     1      -2.114   0.511   0.000  1.00  0.00    -0.456 OA
BRANCH  15  16
ATOM     16  C   UNL     1      -3.553   0.088   0.000  1.00  0.00     0.208 C 
ATOM     17  C   UNL     1      -4.057  -1.325   0.000  1.00  0.00     0.051 C 
ATOM     18  C   UNL     1      -4.741   1.004   0.000  1.00  0.00     0.183 C 
ATOM     19  C   UNL     1      -5.556  -1.282   0.000  1.00  0.00     0.038 C 
ATOM     20  C   UNL     1      -5.979   0.157   0.000  1.00  0.00     0.147 C 
BRANCH  18  21
ATOM     21  O   UNL     1      -4.698   2.503   0.000  1.00  0.00    -0.387 OA
ATOM     22  H   UNL     1       0.000   0.000   0.000  1.00  0.00     0.211 HD
ENDBRANCH  18  21
BRANCH  20  23
ATOM     23  O   UNL     1      -7.392   0.661   0.000  1.00  0.00    -0.390 OA
ATOM     24  H   UNL     1       0.000   0.000   0.000  1.00  0.00     0.211 HD
ENDBRANCH  20  23
ENDBRANCH  15  16
ENDBRANCH   2  15
TORSDOF 9
