REMARK SMILES CS[C@]1(CO)C(=O)N2[C@H]3C(=CC=C[C@@H]3O)C[C@@]2(SC)C(=O)N1C
REMARK SMILES IDX 3 1 6 2 7 3 8 4 9 5 10 6 11 7 12 8 13 9 14 10 16 11 17 12
REMARK SMILES IDX 20 13 21 14 22 15 23 16 2 17 1 18 4 19 5 20 18 22 19 23
REMARK SMILES IDX 15 24
REMARK H PARENT 5 21 15 25
ROOT
ATOM      1  C   UNL     1      -2.177   0.381   0.000  1.00  0.00     0.191 C 
ATOM      2  C   UNL     1      -0.843   1.067   0.000  1.00  0.00     0.263 C 
ATOM      3  O   UNL     1      -0.771   2.565   0.000  1.00  0.00    -0.271 OA
ATOM      4  N   UNL     1       0.418   0.255   0.000  1.00  0.00    -0.306 N 
ATOM      5  C   UNL     1       1.866   0.650   0.000  1.00  0.00     0.146 C 
ATOM      6  C   UNL     1       2.688  -0.605   0.000  1.00  0.00    -0.041 C 
ATOM      7  C   UNL     1       4.185  -0.520   0.000  1.00  0.00     0.001 C 
ATOM      8  C   UNL     1       4.861   0.819   0.000  1.00  0.00    -0.002 C 
ATOM      9  C   UNL     1       4.039   2.074   0.000  1.00  0.00     0.007 C 
ATOM     10  C   UNL     1       2.541   1.989   0.000  1.00  0.00     0.164 C 
ATOM     11  C   UNL     1       1.749  -1.775   0.000  1.00  0.00     0.083 C 
ATOM     12  C   UNL     1       0.346  -1.243   0.000  1.00  0.00     0.172 C 
ATOM     13  C   UNL     1      -0.988  -1.929   0.000  1.00  0.00     0.260 C 
ATOM     14  O   UNL     1      -1.060  -3.428   0.000  1.00  0.00    -0.271 OA
ATOM     15  N   UNL     1      -2.249  -1.118   0.000  1.00  0.00    -0.318 N 
ATOM     16  C   UNL     1      -3.583  -1.804   0.000  1.00  0.00     0.149 C 
ENDROOT
BRANCH   1  17
ATOM     17  S   UNL     1      -2.621   1.813   0.000  1.00  0.00    -0.125 SA
ATOM     18  C   UNL     1      -4.084   2.145   0.000  1.00  0.00     0.088 C 
ENDBRANCH   1  17
BRANCH   1  19
ATOM     19  C   UNL     1      -3.665   0.192   0.000  1.00  0.00     0.206 C 
BRANCH  19  20
ATOM     20  O   UNL     1      -4.572   1.386   0.000  1.00  0.00    -0.392 OA
ATOM     21  H   UNL     1       0.000   0.000   0.000  1.00  0.00     0.210 HD
ENDBRANCH  19  20
ENDBRANCH   1  19
BRANCH  12  22
ATOM     22  S   UNL     1       0.431  -2.740   0.000  1.00  0.00    -0.127 SA
ATOM     23  C   UNL     1       1.770  -3.416   0.000  1.00  0.00     0.088 C 
ENDBRANCH  12  22
BRANCH  10  24
ATOM     24  O   UNL     1       1.719   3.244   0.000  1.00  0.00    -0.387 OA
ATOM     25  H   UNL     1       0.000   0.000   0.000  1.00  0.00     0.211 HD
ENDBRANCH  10  24
TORSDOF 5
