REMARK SMILES O=C1CC(c2ccc(O)cc2)Oc2c1c(O)cc(O)c2[C@@H]1O[C@H](CO)[C@@H](O)[C@H](O)[C@H]1O
REMARK SMILES IDX 1 1 2 2 3 3 4 4 12 5 13 6 14 7 15 8 17 9 18 10 20 11 5 12
REMARK SMILES IDX 6 13 11 14 7 15 10 16 8 17 9 18 16 20 21 22 22 23 30 24
REMARK SMILES IDX 23 25 28 26 26 27 31 28 24 30 25 31 29 33 27 35 19 37
REMARK H PARENT 9 19 16 21 31 29 25 32 29 34 27 36 19 38
ROOT
ATOM      1  O   UNL     1      -2.080  -4.788   0.000  1.00  0.00    -0.294 OA
ATOM      2  C   UNL     1      -1.664  -3.347   0.000  1.00  0.00     0.174 C 
ATOM      3  C   UNL     1      -2.704  -2.266   0.000  1.00  0.00     0.131 C 
ATOM      4  C   UNL     1      -2.288  -0.825   0.000  1.00  0.00     0.211 C 
ATOM      5  O   UNL     1      -0.832  -0.465   0.000  1.00  0.00    -0.484 OA
ATOM      6  C   UNL     1       0.208  -1.546   0.000  1.00  0.00     0.144 A 
ATOM      7  C   UNL     1      -0.208  -2.987   0.000  1.00  0.00     0.102 A 
ATOM      8  C   UNL     1       0.832  -4.068   0.000  1.00  0.00     0.133 A 
ATOM      9  C   UNL     1       2.288  -3.708   0.000  1.00  0.00     0.093 A 
ATOM     10  C   UNL     1       2.704  -2.266   0.000  1.00  0.00     0.128 A 
ATOM     11  C   UNL     1       1.664  -1.185   0.000  1.00  0.00     0.068 A 
ENDROOT
BRANCH   4  12
ATOM     12  C   UNL     1      -3.328   0.256   0.000  1.00  0.00    -0.007 A 
ATOM     13  C   UNL     1      -2.912   1.697   0.000  1.00  0.00     0.011 A 
ATOM     14  C   UNL     1      -4.784  -0.105   0.000  1.00  0.00     0.011 A 
ATOM     15  C   UNL     1      -3.952   2.778   0.000  1.00  0.00     0.046 A 
ATOM     16  C   UNL     1      -5.824   0.976   0.000  1.00  0.00     0.046 A 
ATOM     17  C   UNL     1      -5.408   2.417   0.000  1.00  0.00     0.115 A 
BRANCH  17  18
ATOM     18  O   UNL     1      -6.448   3.498   0.000  1.00  0.00    -0.508 OA
ATOM     19  H   UNL     1       0.000   0.000   0.000  1.00  0.00     0.293 HD
ENDBRANCH  17  18
ENDBRANCH   4  12
BRANCH   8  20
ATOM     20  O   UNL     1       0.416  -5.509   0.000  1.00  0.00    -0.507 OA
ATOM     21  H   UNL     1       0.000   0.000   0.000  1.00  0.00     0.293 HD
ENDBRANCH   8  20
BRANCH  11  22
ATOM     22  C   UNL     1       2.080   0.256   0.000  1.00  0.00     0.188 C 
ATOM     23  O   UNL     1       3.536   0.616   0.000  1.00  0.00    -0.362 OA
ATOM     24  C   UNL     1       1.040   1.337   0.000  1.00  0.00     0.179 C 
ATOM     25  C   UNL     1       3.952   2.057   0.000  1.00  0.00     0.176 C 
ATOM     26  C   UNL     1       1.456   2.778   0.000  1.00  0.00     0.177 C 
ATOM     27  C   UNL     1       2.912   3.138   0.000  1.00  0.00     0.177 C 
BRANCH  24  28
ATOM     28  O   UNL     1      -0.416   0.976   0.000  1.00  0.00    -0.387 OA
ATOM     29  H   UNL     1       0.000   0.000   0.000  1.00  0.00     0.211 HD
ENDBRANCH  24  28
BRANCH  25  30
ATOM     30  C   UNL     1       5.408   2.417   0.000  1.00  0.00     0.191 C 
BRANCH  30  31
ATOM     31  O   UNL     1       6.448   1.337   0.000  1.00  0.00    -0.394 OA
ATOM     32  H   UNL     1       0.000   0.000   0.000  1.00  0.00     0.210 HD
ENDBRANCH  30  31
ENDBRANCH  25  30
BRANCH  26  33
ATOM     33  O   UNL     1       0.416   3.859   0.000  1.00  0.00    -0.387 OA
ATOM     34  H   UNL     1       0.000   0.000   0.000  1.00  0.00     0.211 HD
ENDBRANCH  26  33
BRANCH  27  35
ATOM     35  O   UNL     1       3.328   4.579   0.000  1.00  0.00    -0.388 OA
ATOM     36  H   UNL     1       0.000   0.000   0.000  1.00  0.00     0.211 HD
ENDBRANCH  27  35
ENDBRANCH  11  22
BRANCH  10  37
ATOM     37  O   UNL     1       4.160  -1.906   0.000  1.00  0.00    -0.507 OA
ATOM     38  H   UNL     1       0.000   0.000   0.000  1.00  0.00     0.293 HD
ENDBRANCH  10  37
TORSDOF 10
