REMARK SMILES COc1cc2oc(=O)ccc2cc1C(=O)O
REMARK SMILES IDX 3 1 4 2 5 3 11 4 10 5 9 6 7 7 8 8 6 9 12 10 13 11 2 12 1 13
REMARK SMILES IDX 14 14 15 15 16 16
REMARK H PARENT 16 17
ROOT
ATOM      1  C   UNL     1      -1.441   0.893   0.000  1.00  0.00     0.137 A 
ATOM      2  C   UNL     1      -0.058   1.472   0.000  1.00  0.00     0.095 A 
ATOM      3  C   UNL     1       1.136   0.564   0.000  1.00  0.00     0.142 A 
ATOM      4  C   UNL     1       0.946  -0.924   0.000  1.00  0.00     0.019 A 
ATOM      5  C   UNL     1       2.140  -1.833   0.000  1.00  0.00     0.019 A 
ATOM      6  C   UNL     1       3.523  -1.253   0.000  1.00  0.00     0.094 A 
ATOM      7  C   UNL     1       3.713   0.235   0.000  1.00  0.00     0.336 A 
ATOM      8  O   UNL     1       5.097   0.815   0.000  1.00  0.00    -0.246 OA
ATOM      9  O   UNL     1       2.519   1.143   0.000  1.00  0.00    -0.423 OA
ATOM     10  C   UNL     1      -0.437  -1.504   0.000  1.00  0.00     0.031 A 
ATOM     11  C   UNL     1      -1.631  -0.595   0.000  1.00  0.00     0.102 A 
ENDROOT
BRANCH   1  12
ATOM     12  O   UNL     1      -2.635   1.801   0.000  1.00  0.00    -0.496 OA
ATOM     13  C   UNL     1      -2.445   3.289   0.000  1.00  0.00     0.278 C 
ENDBRANCH   1  12
BRANCH  11  14
ATOM     14  C   UNL     1      -3.015  -1.175   0.000  1.00  0.00     0.339 C 
ATOM     15  O   UNL     1      -3.204  -2.663   0.000  1.00  0.00    -0.246 OA
BRANCH  14  16
ATOM     16  O   UNL     1      -4.208  -0.266   0.000  1.00  0.00    -0.478 OA
ATOM     17  H   UNL     1       0.000   0.000   0.000  1.00  0.00     0.297 HD
ENDBRANCH  14  16
ENDBRANCH  11  14
TORSDOF 3
