REMARK SMILES CCCCCCC1CCCC1
REMARK SMILES IDX 4 1 3 2 2 3 1 4 5 5 6 6 7 7 8 8 11 9 9 10 10 11
REMARK H PARENT
ROOT
ATOM      1  C   UNL     1      -2.007  -0.594   0.000  1.00  0.00     0.000 C 
ENDROOT
BRANCH   1   2
ATOM      2  C   UNL     1      -3.205   0.309   0.000  1.00  0.00    -0.000 C 
BRANCH   2   3
ATOM      3  C   UNL     1      -4.586  -0.276   0.000  1.00  0.00    -0.003 C 
ATOM      4  C   UNL     1      -5.783   0.627   0.000  1.00  0.00     0.004 C 
ENDBRANCH   2   3
ENDBRANCH   1   2
BRANCH   1   5
ATOM      5  C   UNL     1      -0.626  -0.009   0.000  1.00  0.00     0.000 C 
BRANCH   5   6
ATOM      6  C   UNL     1       0.571  -0.912   0.000  1.00  0.00     0.003 C 
BRANCH   6   7
ATOM      7  C   UNL     1       1.952  -0.327   0.000  1.00  0.00    -0.011 C 
ATOM      8  C   UNL     1       3.238  -1.100   0.000  1.00  0.00     0.003 C 
ATOM      9  C   UNL     1       2.291   1.135   0.000  1.00  0.00     0.003 C 
ATOM     10  C   UNL     1       4.370  -0.117   0.000  1.00  0.00     0.000 C 
ATOM     11  C   UNL     1       3.785   1.264   0.000  1.00  0.00     0.000 C 
ENDBRANCH   6   7
ENDBRANCH   5   6
ENDBRANCH   1   5
TORSDOF 5
