REMARK SMILES C[C@H](C(=O)c1ccc2c(c1)OCO2)[C@@H](C)Cc1ccc2c(c1)OCO2
REMARK SMILES IDX 1 1 2 2 3 3 4 4 5 5 6 6 10 7 7 8 9 9 8 10 11 11 13 12 12 13
REMARK SMILES IDX 14 14 15 15 16 16 17 17 18 18 22 19 19 20 21 21 20 22 23 23
REMARK SMILES IDX 25 24 24 25
REMARK H PARENT
ROOT
ATOM      1  C   UNL     1      -1.045   4.633   0.000  1.00  0.00     0.016 C 
ATOM      2  C   UNL     1      -1.085   3.134   0.000  1.00  0.00     0.061 C 
ENDROOT
BRANCH   2   3
ATOM      3  C   UNL     1      -2.404   2.419   0.000  1.00  0.00     0.166 C 
ATOM      4  O   UNL     1      -3.682   3.203   0.000  1.00  0.00    -0.294 OA
BRANCH   3   5
ATOM      5  C   UNL     1      -2.444   0.919   0.000  1.00  0.00     0.022 A 
ATOM      6  C   UNL     1      -1.165   0.135   0.000  1.00  0.00     0.016 A 
ATOM      7  C   UNL     1      -3.762   0.204   0.000  1.00  0.00     0.062 A 
ATOM      8  C   UNL     1      -1.205  -1.365   0.000  1.00  0.00     0.051 A 
ATOM      9  C   UNL     1      -3.803  -1.295   0.000  1.00  0.00     0.166 A 
ATOM     10  C   UNL     1      -2.524  -2.079   0.000  1.00  0.00     0.165 A 
ATOM     11  O   UNL     1      -4.944  -2.269   0.000  1.00  0.00    -0.454 OA
ATOM     12  O   UNL     1      -2.875  -3.538   0.000  1.00  0.00    -0.454 OA
ATOM     13  C   UNL     1      -4.370  -3.655   0.000  1.00  0.00     0.468 C 
ENDBRANCH   3   5
ENDBRANCH   2   3
BRANCH   2  14
ATOM     14  C   UNL     1       0.194   2.349   0.000  1.00  0.00     0.001 C 
ATOM     15  C   UNL     1       1.512   3.064   0.000  1.00  0.00     0.009 C 
BRANCH  14  16
ATOM     16  C   UNL     1       0.153   0.850   0.000  1.00  0.00     0.039 C 
BRANCH  16  17
ATOM     17  C   UNL     1       1.432   0.066   0.000  1.00  0.00    -0.044 A 
ATOM     18  C   UNL     1       1.392  -1.434   0.000  1.00  0.00     0.008 A 
ATOM     19  C   UNL     1       2.751   0.781   0.000  1.00  0.00     0.054 A 
ATOM     20  C   UNL     1       2.670  -2.218   0.000  1.00  0.00     0.051 A 
ATOM     21  C   UNL     1       4.029  -0.004   0.000  1.00  0.00     0.166 A 
ATOM     22  C   UNL     1       3.989  -1.503   0.000  1.00  0.00     0.165 A 
ATOM     23  O   UNL     1       5.468   0.421   0.000  1.00  0.00    -0.454 OA
ATOM     24  O   UNL     1       5.403  -2.005   0.000  1.00  0.00    -0.454 OA
ATOM     25  C   UNL     1       6.316  -0.815   0.000  1.00  0.00     0.468 C 
ENDBRANCH  16  17
ENDBRANCH  14  16
ENDBRANCH   2  14
TORSDOF 5
