REMARK SMILES CC1(C)CC[C@]2(C(=O)O)CC[C@]3(C)C(=CC[C@@H]4[C@@]5(C)C[C@@H](O)[C@H](O)[C@](C)(CO)[C@@H]5CC[C@]43C)[C@@H]2[C@@H]1O
REMARK SMILES IDX 1 1 2 2 3 3 4 4 5 5 6 6 10 7 11 8 12 9 13 10 14 11 15 12
REMARK SMILES IDX 16 13 17 14 18 15 19 16 20 17 21 18 23 19 25 20 26 21 29 22
REMARK SMILES IDX 30 23 31 24 32 25 33 26 34 27 35 28 36 29 7 31 8 32 9 33
REMARK SMILES IDX 27 35 28 36 22 38 24 40
REMARK H PARENT 36 30 9 34 28 37 22 39 24 41
ROOT
ATOM      1  C   UNL     1      -5.256  -3.112   0.000  1.00  0.00     0.014 C 
ATOM      2  C   UNL     1      -5.463  -1.626   0.000  1.00  0.00    -0.009 C 
ATOM      3  C   UNL     1      -6.890  -2.088   0.000  1.00  0.00     0.014 C 
ATOM      4  C   UNL     1      -6.165  -0.301   0.000  1.00  0.00     0.010 C 
ATOM      5  C   UNL     1      -5.369   0.970   0.000  1.00  0.00     0.020 C 
ATOM      6  C   UNL     1      -3.870   0.915   0.000  1.00  0.00     0.077 C 
ATOM      7  C   UNL     1      -3.073   2.187   0.000  1.00  0.00     0.020 C 
ATOM      8  C   UNL     1      -1.574   2.132   0.000  1.00  0.00     0.013 C 
ATOM      9  C   UNL     1      -0.872   0.807   0.000  1.00  0.00    -0.006 C 
ATOM     10  C   UNL     1      -0.170  -0.519   0.000  1.00  0.00     0.017 C 
ATOM     11  C   UNL     1      -1.669  -0.464   0.000  1.00  0.00    -0.061 C 
ATOM     12  C   UNL     1      -0.966  -1.790   0.000  1.00  0.00    -0.026 C 
ATOM     13  C   UNL     1       0.533  -1.844   0.000  1.00  0.00     0.032 C 
ATOM     14  C   UNL     1       1.329  -0.573   0.000  1.00  0.00     0.006 C 
ATOM     15  C   UNL     1       2.829  -0.627   0.000  1.00  0.00    -0.023 C 
ATOM     16  C   UNL     1       2.032  -1.898   0.000  1.00  0.00     0.012 C 
ATOM     17  C   UNL     1       3.531  -1.953   0.000  1.00  0.00     0.042 C 
ATOM     18  C   UNL     1       5.030  -2.007   0.000  1.00  0.00     0.144 C 
ATOM     19  C   UNL     1       5.827  -0.736   0.000  1.00  0.00     0.151 C 
ATOM     20  C   UNL     1       5.124   0.589   0.000  1.00  0.00     0.022 C 
ATOM     21  C   UNL     1       4.917   2.075   0.000  1.00  0.00     0.017 C 
ATOM     22  C   UNL     1       3.625   0.644   0.000  1.00  0.00     0.006 C 
ATOM     23  C   UNL     1       2.923   1.969   0.000  1.00  0.00     0.005 C 
ATOM     24  C   UNL     1       1.424   2.023   0.000  1.00  0.00     0.008 C 
ATOM     25  C   UNL     1       0.627   0.752   0.000  1.00  0.00    -0.020 C 
ATOM     26  C   UNL     1      -0.075   2.078   0.000  1.00  0.00     0.012 C 
ATOM     27  C   UNL     1      -3.167  -0.410   0.000  1.00  0.00     0.062 C 
ATOM     28  C   UNL     1      -3.964  -1.681   0.000  1.00  0.00     0.128 C 
ENDROOT
BRANCH  28  29
ATOM     29  O   UNL     1      -3.262  -3.006   0.000  1.00  0.00    -0.392 OA
ATOM     30  H   UNL     1       0.000   0.000   0.000  1.00  0.00     0.211 HD
ENDBRANCH  28  29
BRANCH   6  31
ATOM     31  C   UNL     1      -4.572   2.241   0.000  1.00  0.00     0.310 C 
ATOM     32  O   UNL     1      -6.071   2.295   0.000  1.00  0.00    -0.252 OA
BRANCH  31  33
ATOM     33  O   UNL     1      -3.776   3.512   0.000  1.00  0.00    -0.481 OA
ATOM     34  H   UNL     1       0.000   0.000   0.000  1.00  0.00     0.296 HD
ENDBRANCH  31  33
ENDBRANCH   6  31
BRANCH  20  35
ATOM     35  C   UNL     1       6.551   1.051   0.000  1.00  0.00     0.165 C 
BRANCH  35  36
ATOM     36  O   UNL     1       6.865   2.518   0.000  1.00  0.00    -0.396 OA
ATOM     37  H   UNL     1       0.000   0.000   0.000  1.00  0.00     0.210 HD
ENDBRANCH  35  36
ENDBRANCH  20  35
BRANCH  18  38
ATOM     38  O   UNL     1       5.732  -3.333   0.000  1.00  0.00    -0.390 OA
ATOM     39  H   UNL     1       0.000   0.000   0.000  1.00  0.00     0.211 HD
ENDBRANCH  18  38
BRANCH  19  40
ATOM     40  O   UNL     1       7.326  -0.790   0.000  1.00  0.00    -0.390 OA
ATOM     41  H   UNL     1       0.000   0.000   0.000  1.00  0.00     0.211 HD
ENDBRANCH  19  40
TORSDOF 7
