REMARK SMILES C=C(C)[C@@H](O)COc1c2occc2cc2ccc(=O)oc12
REMARK SMILES IDX 6 1 4 2 2 3 1 4 3 5 5 6 7 8 8 9 9 10 21 11 10 12 13 13 15 14
REMARK SMILES IDX 20 15 11 16 12 17 14 18 16 19 18 20 17 21 19 22
REMARK H PARENT 5 7
ROOT
ATOM      1  C   UNL     1      -2.231  -0.360   0.000  1.00  0.00     0.266 C 
ENDROOT
BRANCH   1   2
ATOM      2  C   UNL     1      -3.370  -1.335   0.000  1.00  0.00     0.177 C 
BRANCH   2   3
ATOM      3  C   UNL     1      -4.785  -0.836   0.000  1.00  0.00    -0.049 C 
ATOM      4  C   UNL     1      -5.059   0.638   0.000  1.00  0.00     0.010 C 
ATOM      5  C   UNL     1      -5.924  -1.812   0.000  1.00  0.00     0.042 C 
ENDBRANCH   2   3
BRANCH   2   6
ATOM      6  O   UNL     1      -3.095  -2.810   0.000  1.00  0.00    -0.385 OA
ATOM      7  H   UNL     1       0.000   0.000   0.000  1.00  0.00     0.211 HD
ENDBRANCH   2   6
ENDBRANCH   1   2
BRANCH   1   8
ATOM      8  O   UNL     1      -0.816  -0.859   0.000  1.00  0.00    -0.483 OA
BRANCH   8   9
ATOM      9  C   UNL     1       0.324   0.116   0.000  1.00  0.00     0.206 A 
ATOM     10  C   UNL     1       0.049   1.591   0.000  1.00  0.00     0.179 A 
ATOM     11  C   UNL     1       1.738  -0.383   0.000  1.00  0.00     0.184 A 
ATOM     12  O   UNL     1      -1.231   2.373   0.000  1.00  0.00    -0.460 OA
ATOM     13  C   UNL     1       1.188   2.566   0.000  1.00  0.00     0.025 A 
ATOM     14  C   UNL     1       2.878   0.593   0.000  1.00  0.00     0.022 A 
ATOM     15  O   UNL     1       2.013  -1.857   0.000  1.00  0.00    -0.419 OA
ATOM     16  C   UNL     1      -0.883   3.832   0.000  1.00  0.00     0.196 A 
ATOM     17  C   UNL     1       0.612   3.951   0.000  1.00  0.00     0.051 A 
ATOM     18  C   UNL     1       2.603   2.067   0.000  1.00  0.00     0.024 A 
ATOM     19  C   UNL     1       4.292   0.093   0.000  1.00  0.00     0.019 A 
ATOM     20  C   UNL     1       3.428  -2.357   0.000  1.00  0.00     0.336 A 
ATOM     21  C   UNL     1       4.567  -1.381   0.000  1.00  0.00     0.094 A 
ATOM     22  O   UNL     1       3.703  -3.831   0.000  1.00  0.00    -0.246 OA
ENDBRANCH   8   9
ENDBRANCH   1   8
TORSDOF 5
