REMARK SMILES CN1C[C@H](O)C[C@H]1C(=O)O
REMARK SMILES IDX 1 1 2 2 3 3 4 4 6 5 7 6 8 7 9 8 10 9 5 11
REMARK H PARENT 10 10 5 12
ROOT
ATOM      1  C   UNL     1      -0.649  -2.455   0.000  1.00  0.00     0.106 C 
ATOM      2  N   UNL     1       0.157  -1.190   0.000  1.00  0.00    -0.291 NA
ATOM      3  C   UNL     1       1.654  -1.098   0.000  1.00  0.00     0.116 C 
ATOM      4  C   UNL     1       2.030   0.354   0.000  1.00  0.00     0.130 C 
ATOM      5  C   UNL     1       0.764   1.160   0.000  1.00  0.00     0.064 C 
ATOM      6  C   UNL     1      -0.393   0.206   0.000  1.00  0.00     0.169 C 
ENDROOT
BRANCH   6   7
ATOM      7  C   UNL     1      -1.845   0.581   0.000  1.00  0.00     0.321 C 
ATOM      8  O   UNL     1      -2.897  -0.488   0.000  1.00  0.00    -0.251 OA
BRANCH   7   9
ATOM      9  O   UNL     1      -2.246   2.027   0.000  1.00  0.00    -0.480 OA
ATOM     10  H   UNL     1       0.000   0.000   0.000  1.00  0.00     0.296 HD
ENDBRANCH   7   9
ENDBRANCH   6   7
BRANCH   4  11
ATOM     11  O   UNL     1       3.425   0.904   0.000  1.00  0.00    -0.392 OA
ATOM     12  H   UNL     1       0.000   0.000   0.000  1.00  0.00     0.211 HD
ENDBRANCH   4  11
TORSDOF 3
