REMARK SMILES C=C(CO)[C@H]1Cc2c(cc(O)c3c2O[C@@H]2COc4cc(OC)c(OC)cc4[C@@H]2C3=O)O1
REMARK SMILES IDX 1 1 2 2 3 3 4 4 5 6 6 7 31 8 7 9 8 10 13 11 9 12 12 13 14 14
REMARK SMILES IDX 10 15 29 16 15 17 28 18 16 19 27 20 17 21 26 22 18 23 23 24
REMARK SMILES IDX 19 25 20 26 30 27 11 28 24 30 25 31 21 32 22 33
REMARK H PARENT 4 5 11 29
ROOT
ATOM      1  C   UNL     1      -8.197   0.190   0.000  1.00  0.00     0.014 C 
ATOM      2  C   UNL     1      -6.977  -0.682   0.000  1.00  0.00    -0.012 C 
ENDROOT
BRANCH   2   3
ATOM      3  C   UNL     1      -7.122  -2.175   0.000  1.00  0.00     0.190 C 
BRANCH   3   4
ATOM      4  O   UNL     1      -8.487  -2.796   0.000  1.00  0.00    -0.392 OA
ATOM      5  H   UNL     1       0.000   0.000   0.000  1.00  0.00     0.211 HD
ENDBRANCH   3   4
ENDBRANCH   2   3
BRANCH   2   6
ATOM      6  C   UNL     1      -5.612  -0.061   0.000  1.00  0.00     0.206 C 
ATOM      7  C   UNL     1      -4.306  -0.800   0.000  1.00  0.00     0.093 C 
ATOM      8  O   UNL     1      -5.311   1.409   0.000  1.00  0.00    -0.485 OA
ATOM      9  C   UNL     1      -3.200   0.212   0.000  1.00  0.00     0.041 A 
ATOM     10  C   UNL     1      -3.821   1.577   0.000  1.00  0.00     0.131 A 
ATOM     11  C   UNL     1      -1.707   0.067   0.000  1.00  0.00     0.141 A 
ATOM     12  C   UNL     1      -2.949   2.798   0.000  1.00  0.00     0.094 A 
ATOM     13  C   UNL     1      -0.835   1.288   0.000  1.00  0.00     0.103 A 
ATOM     14  O   UNL     1      -1.086  -1.298   0.000  1.00  0.00    -0.484 OA
ATOM     15  C   UNL     1      -1.456   2.653   0.000  1.00  0.00     0.133 A 
ATOM     16  C   UNL     1       0.658   1.143   0.000  1.00  0.00     0.181 C 
ATOM     17  C   UNL     1       0.407  -1.443   0.000  1.00  0.00     0.226 C 
ATOM     18  C   UNL     1       1.279  -0.223   0.000  1.00  0.00     0.140 C 
ATOM     19  C   UNL     1       1.028  -2.809   0.000  1.00  0.00     0.275 C 
ATOM     20  C   UNL     1       2.772  -0.368   0.000  1.00  0.00     0.013 A 
ATOM     21  O   UNL     1       2.521  -2.954   0.000  1.00  0.00    -0.489 OA
ATOM     22  C   UNL     1       3.644   0.853   0.000  1.00  0.00     0.059 A 
ATOM     23  C   UNL     1       3.393  -1.733   0.000  1.00  0.00     0.127 A 
ATOM     24  C   UNL     1       5.137   0.708   0.000  1.00  0.00     0.161 A 
ATOM     25  C   UNL     1       4.886  -1.878   0.000  1.00  0.00     0.097 A 
ATOM     26  C   UNL     1       5.758  -0.657   0.000  1.00  0.00     0.164 A 
ATOM     27  O   UNL     1       1.530   2.363   0.000  1.00  0.00    -0.293 OA
BRANCH  15  28
ATOM     28  O   UNL     1      -0.584   3.873   0.000  1.00  0.00    -0.507 OA
ATOM     29  H   UNL     1       0.000   0.000   0.000  1.00  0.00     0.293 HD
ENDBRANCH  15  28
BRANCH  24  30
ATOM     30  O   UNL     1       6.009   1.929   0.000  1.00  0.00    -0.493 OA
ATOM     31  C   UNL     1       7.502   1.784   0.000  1.00  0.00     0.278 C 
ENDBRANCH  24  30
BRANCH  26  32
ATOM     32  O   UNL     1       7.251  -0.802   0.000  1.00  0.00    -0.493 OA
ATOM     33  C   UNL     1       7.872  -2.168   0.000  1.00  0.00     0.278 C 
ENDBRANCH  26  32
ENDBRANCH   2   6
TORSDOF 6
