REMARK SMILES C=C/C(C)=C\C[C@]1(C)[C@H](C)[C@@H](OC(=O)CCC)C[C@@]23C(=C[C@H](OC)C[C@@H]12)C(=O)O[C@H]3OC(C)=O
REMARK SMILES IDX 7 1 8 2 9 3 10 4 11 5 18 6 19 7 20 8 21 9 22 10 25 11 26 12
REMARK SMILES IDX 27 13 28 14 29 15 30 16 6 17 5 18 3 19 4 20 2 21 1 22 12 23
REMARK SMILES IDX 13 24 14 25 15 26 16 27 17 28 23 29 24 30 31 31 32 32 33 33
REMARK SMILES IDX 34 34
REMARK H PARENT
ROOT
ATOM      1  C   UNL     1       0.457   1.120   0.000  1.00  0.00    -0.019 C 
ATOM      2  C   UNL     1       1.375   2.306   0.000  1.00  0.00     0.012 C 
ATOM      3  C   UNL     1      -0.812   0.319   0.000  1.00  0.00     0.033 C 
ATOM      4  C   UNL     1      -2.139   1.017   0.000  1.00  0.00     0.012 C 
ATOM      5  C   UNL     1      -0.752  -1.180   0.000  1.00  0.00     0.181 C 
ATOM      6  C   UNL     1       0.575  -1.878   0.000  1.00  0.00     0.065 C 
ATOM      7  C   UNL     1       1.844  -1.077   0.000  1.00  0.00     0.083 C 
ATOM      8  C   UNL     1       3.171  -1.775   0.000  1.00  0.00     0.050 C 
ATOM      9  C   UNL     1       4.440  -0.975   0.000  1.00  0.00     0.016 C 
ATOM     10  C   UNL     1       4.380   0.524   0.000  1.00  0.00     0.141 C 
ATOM     11  C   UNL     1       3.053   1.222   0.000  1.00  0.00     0.041 C 
ATOM     12  C   UNL     1       1.784   0.422   0.000  1.00  0.00     0.017 C 
ATOM     13  C   UNL     1       3.029  -1.241   0.000  1.00  0.00     0.337 C 
ATOM     14  O   UNL     1       3.964  -4.328   0.000  1.00  0.00    -0.246 OA
ATOM     15  O   UNL     1       2.410  -1.611   0.000  1.00  0.00    -0.421 OA
ATOM     16  C   UNL     1       2.365  -0.892   0.000  1.00  0.00     0.381 C 
ENDROOT
BRANCH   1  17
ATOM     17  C   UNL     1      -0.552   2.230   0.000  1.00  0.00     0.035 C 
BRANCH  17  18
ATOM     18  C   UNL     1      -0.095   3.659   0.000  1.00  0.00    -0.023 C 
BRANCH  18  19
ATOM     19  C   UNL     1      -1.104   4.769   0.000  1.00  0.00    -0.056 C 
ATOM     20  C   UNL     1      -0.647   6.197   0.000  1.00  0.00     0.044 C 
BRANCH  19  21
ATOM     21  C   UNL     1      -2.570   4.450   0.000  1.00  0.00    -0.005 C 
ATOM     22  C   UNL     1      -3.578   5.561   0.000  1.00  0.00     0.009 C 
ENDBRANCH  19  21
ENDBRANCH  18  19
ENDBRANCH  17  18
ENDBRANCH   1  17
BRANCH   5  23
ATOM     23  O   UNL     1      -2.021  -1.980   0.000  1.00  0.00    -0.462 OA
BRANCH  23  24
ATOM     24  C   UNL     1      -3.349  -1.282   0.000  1.00  0.00     0.306 C 
ATOM     25  O   UNL     1      -3.408   0.217   0.000  1.00  0.00    -0.252 OA
BRANCH  24  26
ATOM     26  C   UNL     1      -4.617  -2.083   0.000  1.00  0.00     0.122 C 
BRANCH  26  27
ATOM     27  C   UNL     1      -5.945  -1.385   0.000  1.00  0.00     0.008 C 
ATOM     28  C   UNL     1      -7.213  -2.185   0.000  1.00  0.00     0.004 C 
ENDBRANCH  26  27
ENDBRANCH  24  26
ENDBRANCH  23  24
ENDBRANCH   5  23
BRANCH  10  29
ATOM     29  O   UNL     1       5.649   1.325   0.000  1.00  0.00    -0.377 OA
ATOM     30  C   UNL     1       6.976   0.627   0.000  1.00  0.00     0.195 C 
ENDBRANCH  10  29
BRANCH  16  31
ATOM     31  O   UNL     1      -0.709  -1.870   0.000  1.00  0.00    -0.424 OA
BRANCH  31  32
ATOM     32  C   UNL     1      -1.668  -3.024   0.000  1.00  0.00     0.305 C 
ATOM     33  C   UNL     1      -3.146  -2.770   0.000  1.00  0.00     0.139 C 
ATOM     34  O   UNL     1      -1.149  -4.431   0.000  1.00  0.00    -0.253 OA
ENDBRANCH  31  32
ENDBRANCH  16  31
TORSDOF 11
