REMARK SMILES C=CCc1ccc2c(c1)OCO2
REMARK SMILES IDX 1 1 2 2 3 3 4 4 5 5 9 6 6 7 8 8 7 9 10 10 12 11 11 12
REMARK H PARENT
ROOT
ATOM      1  C   UNL     1       5.111   0.231   0.000  1.00  0.00     0.004 C 
ATOM      2  C   UNL     1       3.694  -0.262   0.000  1.00  0.00    -0.030 C 
ENDROOT
BRANCH   2   3
ATOM      3  C   UNL     1       2.559   0.719   0.000  1.00  0.00     0.062 C 
BRANCH   3   4
ATOM      4  C   UNL     1       1.143   0.227   0.000  1.00  0.00    -0.040 A 
ATOM      5  C   UNL     1       0.861  -1.247   0.000  1.00  0.00     0.008 A 
ATOM      6  C   UNL     1       0.008   1.208   0.000  1.00  0.00     0.054 A 
ATOM      7  C   UNL     1      -0.556  -1.739   0.000  1.00  0.00     0.051 A 
ATOM      8  C   UNL     1      -1.409   0.715   0.000  1.00  0.00     0.166 A 
ATOM      9  C   UNL     1      -1.691  -0.758   0.000  1.00  0.00     0.165 A 
ATOM     10  O   UNL     1      -2.723   1.439   0.000  1.00  0.00    -0.454 OA
ATOM     11  O   UNL     1      -3.179  -0.945   0.000  1.00  0.00    -0.454 OA
ATOM     12  C   UNL     1      -3.817   0.413   0.000  1.00  0.00     0.468 C 
ENDBRANCH   3   4
ENDBRANCH   2   3
TORSDOF 2
