REMARK SMILES COc1cc2c(c(O)c1C=CC(C)C)C(=O)c1c(O)cc(C)cc1C2=O
REMARK SMILES IDX 10 1 9 2 3 3 4 4 5 5 7 6 6 7 25 8 15 9 24 10 17 11 23 12
REMARK SMILES IDX 18 13 21 14 20 15 26 16 16 17 22 18 2 19 1 20 8 21 19 23
REMARK SMILES IDX 11 25 12 26 13 27 14 28
REMARK H PARENT 8 22 19 24
ROOT
ATOM      1  C   UNL     1      -3.687  -0.903   0.000  1.00  0.00     0.012 C 
ENDROOT
BRANCH   1   2
ATOM      2  C   UNL     1      -2.329  -0.266   0.000  1.00  0.00     0.059 A 
ATOM      3  C   UNL     1      -2.202   1.229   0.000  1.00  0.00     0.130 A 
ATOM      4  C   UNL     1      -0.845   1.867   0.000  1.00  0.00     0.060 A 
ATOM      5  C   UNL     1       0.386   1.009   0.000  1.00  0.00     0.041 A 
ATOM      6  C   UNL     1      -1.098  -1.123   0.000  1.00  0.00     0.138 A 
ATOM      7  C   UNL     1       0.260  -0.485   0.000  1.00  0.00     0.077 A 
ATOM      8  C   UNL     1       1.744   1.647   0.000  1.00  0.00     0.194 C 
ATOM      9  C   UNL     1       1.491  -1.342   0.000  1.00  0.00     0.201 C 
ATOM     10  C   UNL     1       2.975   0.790   0.000  1.00  0.00     0.038 A 
ATOM     11  C   UNL     1       2.849  -0.705   0.000  1.00  0.00     0.076 A 
ATOM     12  C   UNL     1       4.333   1.427   0.000  1.00  0.00     0.016 A 
ATOM     13  C   UNL     1       4.080  -1.562   0.000  1.00  0.00     0.127 A 
ATOM     14  C   UNL     1       5.564   0.571   0.000  1.00  0.00    -0.047 A 
ATOM     15  C   UNL     1       5.437  -0.924   0.000  1.00  0.00     0.050 A 
ATOM     16  O   UNL     1       1.871   3.142   0.000  1.00  0.00    -0.289 OA
ATOM     17  O   UNL     1       1.364  -2.837   0.000  1.00  0.00    -0.288 OA
ATOM     18  C   UNL     1       6.922   1.208   0.000  1.00  0.00     0.044 C 
BRANCH   3  19
ATOM     19  O   UNL     1      -3.433   2.086   0.000  1.00  0.00    -0.496 OA
ATOM     20  C   UNL     1      -3.307   3.581   0.000  1.00  0.00     0.278 C 
ENDBRANCH   3  19
BRANCH   6  21
ATOM     21  O   UNL     1      -1.225  -2.617   0.000  1.00  0.00    -0.506 OA
ATOM     22  H   UNL     1       0.000   0.000   0.000  1.00  0.00     0.293 HD
ENDBRANCH   6  21
BRANCH  13  23
ATOM     23  O   UNL     1       3.953  -3.056   0.000  1.00  0.00    -0.507 OA
ATOM     24  H   UNL     1       0.000   0.000   0.000  1.00  0.00     0.293 HD
ENDBRANCH  13  23
ENDBRANCH   1   2
BRANCH   1  25
ATOM     25  C   UNL     1      -4.918  -0.046   0.000  1.00  0.00    -0.023 C 
BRANCH  25  26
ATOM     26  C   UNL     1      -6.276  -0.684   0.000  1.00  0.00     0.005 C 
ATOM     27  C   UNL     1      -7.507   0.173   0.000  1.00  0.00     0.012 C 
ATOM     28  C   UNL     1      -6.402  -2.179   0.000  1.00  0.00     0.012 C 
ENDBRANCH  25  26
ENDBRANCH   1  25
TORSDOF 6
