REMARK SMILES COc1ccc(C[C@@H](COC(C)=O)[C@H](COC(C)=O)Cc2ccc(OC(C)=O)c(OC)c2)cc1OC
REMARK SMILES IDX 14 1 8 2 7 3 6 4 3 5 4 6 34 7 5 8 33 9 2 10 1 11 35 12 36 13
REMARK SMILES IDX 9 14 10 15 11 16 12 17 13 18 15 19 16 20 17 21 18 22 19 23
REMARK SMILES IDX 20 24 21 25 22 26 32 27 23 28 29 29 24 30 30 31 31 32 25 33
REMARK SMILES IDX 26 34 27 35 28 36
REMARK H PARENT
ROOT
ATOM      1  C   UNL     1      -0.080   0.354   0.000  1.00  0.00     0.038 C 
ENDROOT
BRANCH   1   2
ATOM      2  C   UNL     1      -1.571   0.193   0.000  1.00  0.00     0.038 C 
BRANCH   2   3
ATOM      3  C   UNL     1      -2.457   1.404   0.000  1.00  0.00     0.043 C 
BRANCH   3   4
ATOM      4  C   UNL     1      -3.948   1.243   0.000  1.00  0.00    -0.044 A 
ATOM      5  C   UNL     1      -6.931   0.921   0.000  1.00  0.00     0.160 A 
ATOM      6  C   UNL     1      -6.324   2.293   0.000  1.00  0.00     0.051 A 
ATOM      7  C   UNL     1      -6.045  -0.290   0.000  1.00  0.00     0.160 A 
ATOM      8  C   UNL     1      -4.833   2.454   0.000  1.00  0.00     0.008 A 
ATOM      9  C   UNL     1      -4.554  -0.129   0.000  1.00  0.00     0.054 A 
BRANCH   5  10
ATOM     10  O   UNL     1      -8.422   0.760   0.000  1.00  0.00    -0.493 OA
ATOM     11  C   UNL     1      -9.307   1.972   0.000  1.00  0.00     0.278 C 
ENDBRANCH   5  10
BRANCH   7  12
ATOM     12  O   UNL     1      -6.652  -1.662   0.000  1.00  0.00    -0.493 OA
ATOM     13  C   UNL     1      -5.767  -2.873   0.000  1.00  0.00     0.278 C 
ENDBRANCH   7  12
ENDBRANCH   3   4
ENDBRANCH   2   3
BRANCH   2  14
ATOM     14  C   UNL     1      -2.178  -1.179   0.000  1.00  0.00     0.237 C 
BRANCH  14  15
ATOM     15  O   UNL     1      -1.293  -2.390   0.000  1.00  0.00    -0.466 OA
BRANCH  15  16
ATOM     16  C   UNL     1      -1.899  -3.762   0.000  1.00  0.00     0.302 C 
ATOM     17  C   UNL     1      -1.014  -4.973   0.000  1.00  0.00     0.139 C 
ATOM     18  O   UNL     1      -3.390  -3.923   0.000  1.00  0.00    -0.253 OA
ENDBRANCH  15  16
ENDBRANCH  14  15
ENDBRANCH   2  14
ENDBRANCH   1   2
BRANCH   1  19
ATOM     19  C   UNL     1       0.526   1.726   0.000  1.00  0.00     0.237 C 
BRANCH  19  20
ATOM     20  O   UNL     1       2.017   1.887   0.000  1.00  0.00    -0.466 OA
BRANCH  20  21
ATOM     21  C   UNL     1       2.624   3.259   0.000  1.00  0.00     0.302 C 
ATOM     22  C   UNL     1       4.115   3.420   0.000  1.00  0.00     0.139 C 
ATOM     23  O   UNL     1       1.739   4.470   0.000  1.00  0.00    -0.253 OA
ENDBRANCH  20  21
ENDBRANCH  19  20
ENDBRANCH   1  19
BRANCH   1  24
ATOM     24  C   UNL     1       0.805  -0.857   0.000  1.00  0.00     0.043 C 
BRANCH  24  25
ATOM     25  C   UNL     1       2.296  -0.696   0.000  1.00  0.00    -0.044 A 
ATOM     26  C   UNL     1       3.181  -1.907   0.000  1.00  0.00     0.008 A 
ATOM     27  C   UNL     1       2.902   0.676   0.000  1.00  0.00     0.054 A 
ATOM     28  C   UNL     1       4.673  -1.746   0.000  1.00  0.00     0.051 A 
ATOM     29  C   UNL     1       4.394   0.837   0.000  1.00  0.00     0.161 A 
ATOM     30  C   UNL     1       5.279  -0.374   0.000  1.00  0.00     0.172 A 
BRANCH  29  31
ATOM     31  O   UNL     1       5.000   2.209   0.000  1.00  0.00    -0.493 OA
ATOM     32  C   UNL     1       6.492   2.370   0.000  1.00  0.00     0.278 C 
ENDBRANCH  29  31
BRANCH  30  33
ATOM     33  O   UNL     1       6.770  -0.213   0.000  1.00  0.00    -0.423 OA
BRANCH  33  34
ATOM     34  C   UNL     1       7.655  -1.424   0.000  1.00  0.00     0.308 C 
ATOM     35  C   UNL     1       9.147  -1.263   0.000  1.00  0.00     0.139 C 
ATOM     36  O   UNL     1       7.049  -2.796   0.000  1.00  0.00    -0.252 OA
ENDBRANCH  33  34
ENDBRANCH  30  33
ENDBRANCH  24  25
ENDBRANCH   1  24
TORSDOF 16
