REMARK SMILES O=C(O)C1=CC[C@@H]2C(C(=O)O)=CO[C@@H](O[C@@H]3O[C@H](CO)[C@@H](O)[C@H](O)[C@H]3O)[C@H]12
REMARK SMILES IDX 15 1 14 2 4 3 5 4 27 5 6 6 7 7 13 8 8 9 12 10 2 11 1 12 3 13
REMARK SMILES IDX 9 15 10 16 11 17 16 19 17 20 25 21 18 22 23 23 21 24 26 25
REMARK SMILES IDX 19 27 20 28 24 30 22 32
REMARK H PARENT 3 14 11 18 26 26 20 29 24 31 22 33
ROOT
ATOM      1  O   UNL     1      -0.504  -1.063   0.000  1.00  0.00    -0.310 OA
ENDROOT
BRANCH   1   2
ATOM      2  C   UNL     1       0.693  -0.158   0.000  1.00  0.00     0.317 C 
ATOM      3  C   UNL     1       2.565  -2.160   0.000  1.00  0.00     0.043 C 
ATOM      4  C   UNL     1       4.064  -2.132   0.000  1.00  0.00    -0.015 C 
ATOM      5  C   UNL     1       2.074  -0.742   0.000  1.00  0.00     0.104 C 
ATOM      6  C   UNL     1       4.501  -0.697   0.000  1.00  0.00     0.037 C 
ATOM      7  C   UNL     1       3.271   0.162   0.000  1.00  0.00     0.048 C 
ATOM      8  O   UNL     1       0.508   1.330   0.000  1.00  0.00    -0.471 OA
ATOM      9  C   UNL     1       3.086   1.651   0.000  1.00  0.00     0.076 C 
ATOM     10  C   UNL     1       1.705   2.235   0.000  1.00  0.00     0.202 C 
BRANCH   3  11
ATOM     11  C   UNL     1       1.706  -3.390   0.000  1.00  0.00     0.331 C 
ATOM     12  O   UNL     1       0.211  -3.261   0.000  1.00  0.00    -0.247 OA
BRANCH  11  13
ATOM     13  O   UNL     1       2.342  -4.748   0.000  1.00  0.00    -0.478 OA
ATOM     14  H   UNL     1       0.000   0.000   0.000  1.00  0.00     0.297 HD
ENDBRANCH  11  13
ENDBRANCH   3  11
BRANCH   9  15
ATOM     15  C   UNL     1       4.283   2.555   0.000  1.00  0.00     0.335 C 
ATOM     16  O   UNL     1       5.664   1.971   0.000  1.00  0.00    -0.247 OA
BRANCH  15  17
ATOM     17  O   UNL     1       4.098   4.043   0.000  1.00  0.00    -0.478 OA
ATOM     18  H   UNL     1       0.000   0.000   0.000  1.00  0.00     0.297 HD
ENDBRANCH  15  17
ENDBRANCH   9  15
ENDBRANCH   1   2
BRANCH   1  19
ATOM     19  C   UNL     1      -1.885  -0.478   0.000  1.00  0.00     0.286 C 
ATOM     20  O   UNL     1      -2.070   1.010   0.000  1.00  0.00    -0.341 OA
ATOM     21  C   UNL     1      -3.082  -1.383   0.000  1.00  0.00     0.202 C 
ATOM     22  C   UNL     1      -3.452   1.594   0.000  1.00  0.00     0.178 C 
ATOM     23  C   UNL     1      -4.464  -0.799   0.000  1.00  0.00     0.179 C 
ATOM     24  C   UNL     1      -4.649   0.690   0.000  1.00  0.00     0.177 C 
BRANCH  21  25
ATOM     25  O   UNL     1      -2.897  -2.871   0.000  1.00  0.00    -0.385 OA
ATOM     26  H   UNL     1       0.000   0.000   0.000  1.00  0.00     0.211 HD
ENDBRANCH  21  25
BRANCH  22  27
ATOM     27  C   UNL     1      -3.637   3.083   0.000  1.00  0.00     0.191 C 
BRANCH  27  28
ATOM     28  O   UNL     1      -2.440   3.987   0.000  1.00  0.00    -0.394 OA
ATOM     29  H   UNL     1       0.000   0.000   0.000  1.00  0.00     0.210 HD
ENDBRANCH  27  28
ENDBRANCH  22  27
BRANCH  23  30
ATOM     30  O   UNL     1      -5.660  -1.703   0.000  1.00  0.00    -0.387 OA
ATOM     31  H   UNL     1       0.000   0.000   0.000  1.00  0.00     0.211 HD
ENDBRANCH  23  30
BRANCH  24  32
ATOM     32  O   UNL     1      -6.030   1.274   0.000  1.00  0.00    -0.387 OA
ATOM     33  H   UNL     1       0.000   0.000   0.000  1.00  0.00     0.211 HD
ENDBRANCH  24  32
ENDBRANCH   1  19
TORSDOF 11
