REMARK SMILES CCc1c(CO)ccc2c1CC[C@H]1C(C)(C)CCC[C@]21C
REMARK SMILES IDX 3 1 4 2 7 3 8 4 9 5 10 6 11 7 12 8 13 9 14 10 15 11 16 12
REMARK SMILES IDX 17 13 18 14 19 15 20 16 21 17 2 18 1 19 5 20 6 21
REMARK H PARENT 6 22
ROOT
ATOM      1  C   UNL     1      -2.337  -0.829   0.000  1.00  0.00    -0.039 A 
ATOM      2  C   UNL     1      -3.152   0.430   0.000  1.00  0.00    -0.019 A 
ATOM      3  C   UNL     1      -2.469   1.766   0.000  1.00  0.00     0.007 A 
ATOM      4  C   UNL     1      -0.971   1.842   0.000  1.00  0.00     0.005 A 
ATOM      5  C   UNL     1      -0.156   0.583   0.000  1.00  0.00    -0.038 A 
ATOM      6  C   UNL     1      -0.839  -0.753   0.000  1.00  0.00    -0.041 A 
ATOM      7  C   UNL     1      -0.024  -2.012   0.000  1.00  0.00     0.036 C 
ATOM      8  C   UNL     1       1.474  -1.936   0.000  1.00  0.00     0.010 C 
ATOM      9  C   UNL     1       2.157  -0.601   0.000  1.00  0.00     0.005 C 
ATOM     10  C   UNL     1       3.655  -0.525   0.000  1.00  0.00    -0.032 C 
ATOM     11  C   UNL     1       5.089  -0.965   0.000  1.00  0.00     0.011 C 
ATOM     12  C   UNL     1       3.470  -2.013   0.000  1.00  0.00     0.011 C 
ATOM     13  C   UNL     1       4.338   0.811   0.000  1.00  0.00     0.007 C 
ATOM     14  C   UNL     1       3.523   2.070   0.000  1.00  0.00     0.001 C 
ATOM     15  C   UNL     1       2.025   1.994   0.000  1.00  0.00     0.012 C 
ATOM     16  C   UNL     1       1.342   0.659   0.000  1.00  0.00    -0.004 C 
ATOM     17  C   UNL     1       0.527   1.918   0.000  1.00  0.00     0.017 C 
ENDROOT
BRANCH   1  18
ATOM     18  C   UNL     1      -3.020  -2.164   0.000  1.00  0.00     0.033 C 
ATOM     19  C   UNL     1      -4.518  -2.241   0.000  1.00  0.00     0.009 C 
ENDBRANCH   1  18
BRANCH   2  20
ATOM     20  C   UNL     1      -4.650   0.354   0.000  1.00  0.00     0.192 C 
BRANCH  20  21
ATOM     21  O   UNL     1      -5.465   1.613   0.000  1.00  0.00    -0.392 OA
ATOM     22  H   UNL     1       0.000   0.000   0.000  1.00  0.00     0.211 HD
ENDBRANCH  20  21
ENDBRANCH   2  20
TORSDOF 3
