REMARK SMILES CC(=O)O[C@@H]1[C@@H]2O[C@H]2[C@@](C)(O)C(=O)[C@@H](C)C/C=C/[C@H]2[C@H](O)C(C)=C(C)[C@H]3[C@H](Cc4ccccc4)NC(=O)[C@@]123
REMARK SMILES IDX 19 1 20 2 22 3 23 4 24 5 25 6 26 7 27 8 35 9 36 10 37 11
REMARK SMILES IDX 38 12 5 14 4 15 2 16 1 17 3 18 6 19 7 20 8 21 9 22 10 23
REMARK SMILES IDX 11 24 12 26 13 27 18 29 17 30 16 31 14 32 15 33 21 35 28 37
REMARK SMILES IDX 29 38 30 39 34 40 31 41 33 42 32 43
REMARK H PARENT 35 13 11 25 21 36
REMARK Flexibility Score:   23.900
ROOT
ATOM      1  C   UNL     1      -0.332   2.220   0.000  1.00  0.00     0.064 C 
ATOM      2  C   UNL     1       0.702   3.307   0.000  1.00  0.00     0.148 C 
ATOM      3  C   UNL     1       2.160   2.956   0.000  1.00  0.00    -0.045 C 
ATOM      4  C   UNL     1       3.193   4.043   0.000  1.00  0.00     0.042 C 
ATOM      5  C   UNL     1       2.585   1.517   0.000  1.00  0.00    -0.065 C 
ATOM      6  C   UNL     1       4.043   1.166   0.000  1.00  0.00     0.040 C 
ATOM      7  C   UNL     1       1.551   0.430   0.000  1.00  0.00     0.058 C 
ATOM      8  C   UNL     1       1.668  -1.066   0.000  1.00  0.00     0.094 C 
ATOM      9  N   UNL     1       0.281  -1.639   0.000  1.00  0.00    -0.352 N 
ATOM     10  C   UNL     1      -0.692  -0.497   0.000  1.00  0.00     0.231 C 
ATOM     11  O   UNL     1      -2.187  -0.614   0.000  1.00  0.00    -0.274 OA
ATOM     12  C   UNL     1       0.093   0.781   0.000  1.00  0.00     0.106 C 
ATOM     13  H   UNL     1       0.000   0.000   0.000  1.00  0.00     0.163 HD
ENDROOT
BRANCH  12  14
ATOM     14  C   UNL     1      -0.327  -0.659   0.000  1.00  0.00     0.225 C 
BRANCH  14  15
ATOM     15  O   UNL     1       0.936  -1.468   0.000  1.00  0.00    -0.458 OA
BRANCH  15  16
ATOM     16  C   UNL     1       0.867  -2.966   0.000  1.00  0.00     0.303 C 
ATOM     17  C   UNL     1       2.130  -3.775   0.000  1.00  0.00     0.139 C 
ATOM     18  O   UNL     1      -0.465  -3.655   0.000  1.00  0.00    -0.253 OA
ENDBRANCH  15  16
ENDBRANCH  14  15
BRANCH  14  19
ATOM     19  C   UNL     1      -1.459  -1.643   0.000  1.00  0.00     0.193 C 
ATOM     20  O   UNL     1      -2.015  -3.036   0.000  1.00  0.00    -0.362 OA
ATOM     21  C   UNL     1      -2.944  -1.859   0.000  1.00  0.00     0.190 C 
BRANCH  21  22
ATOM     22  C   UNL     1      -4.309  -1.238   0.000  1.00  0.00     0.149 C 
ATOM     23  C   UNL     1      -5.766  -1.594   0.000  1.00  0.00     0.054 C 
BRANCH  22  24
ATOM     24  O   UNL     1      -4.449  -2.731   0.000  1.00  0.00    -0.379 OA
ATOM     25  H   UNL     1       0.000   0.000   0.000  1.00  0.00     0.212 HD
ENDBRANCH  22  24
BRANCH  22  26
ATOM     26  C   UNL     1      -5.122   0.023   0.000  1.00  0.00     0.169 CG0
ATOM     27  O   UNL     1      -6.561  -0.402   0.000  1.00  0.00    -0.296 OA
ATOM     28  G   UNL     1      -5.125   1.523   0.000  1.00  0.00     0.000 G0
ENDBRANCH  22  26
ENDBRANCH  21  22
ENDBRANCH  14  19
ENDBRANCH  12  14
BRANCH   1  29
ATOM     29  C   UNL     1      -1.467   3.200   0.000  1.00  0.00    -0.024 C 
BRANCH  29  30
ATOM     30  C   UNL     1      -2.831   2.575   0.000  1.00  0.00    -0.030 C 
BRANCH  30  31
ATOM     31  C   UNL     1      -4.316   2.786   0.000  1.00  0.00     0.038 C 
BRANCH  31  32
ATOM     32  C   UNL     1      -5.125   1.523   0.000  1.00  0.00     0.060 CG0
ATOM     33  C   UNL     1      -6.564   1.943   0.000  1.00  0.00     0.016 C 
ATOM     34  G   UNL     1      -5.122   0.023   0.000  1.00  0.00     0.000 G0
ENDBRANCH  31  32
ENDBRANCH  30  31
ENDBRANCH  29  30
ENDBRANCH   1  29
BRANCH   2  35
ATOM     35  O   UNL     1       0.277   4.746   0.000  1.00  0.00    -0.388 OA
ATOM     36  H   UNL     1       0.000   0.000   0.000  1.00  0.00     0.211 HD
ENDBRANCH   2  35
BRANCH   8  37
ATOM     37  C   UNL     1       2.946  -1.850   0.000  1.00  0.00     0.061 C 
BRANCH  37  38
ATOM     38  C   UNL     1       4.265  -1.136   0.000  1.00  0.00    -0.046 A 
ATOM     39  C   UNL     1       4.305   0.364   0.000  1.00  0.00     0.004 A 
ATOM     40  C   UNL     1       5.543  -1.920   0.000  1.00  0.00     0.004 A 
ATOM     41  C   UNL     1       5.624   1.079   0.000  1.00  0.00     0.000 A 
ATOM     42  C   UNL     1       6.862  -1.206   0.000  1.00  0.00     0.000 A 
ATOM     43  C   UNL     1       6.902   0.294   0.000  1.00  0.00     0.000 A 
ENDBRANCH  37  38
ENDBRANCH   8  37
TORSDOF 6
