REMARK SMILES CC[C@H]1C(=O)C[C@H]2[C@@H]3CC[C@H]4[C@@H](O)[C@@H](O)[C@@H](O)C[C@]4(C)[C@H]3CC[C@]12C
REMARK SMILES IDX 3 1 4 2 5 3 6 4 7 5 8 6 9 7 10 8 11 9 12 10 14 11 16 12
REMARK SMILES IDX 18 13 19 14 20 15 21 16 22 17 23 18 24 19 25 20 2 21 1 22
REMARK SMILES IDX 17 23 13 25 15 27
REMARK H PARENT 17 24 13 26 15 28
ROOT
ATOM      1  C   UNL     1       4.118  -0.283   0.000  1.00  0.00     0.062 C 
ATOM      2  C   UNL     1       4.362   1.197   0.000  1.00  0.00     0.136 C 
ATOM      3  O   UNL     1       5.702   1.870   0.000  1.00  0.00    -0.299 OA
ATOM      4  C   UNL     1       3.029   1.886   0.000  1.00  0.00     0.080 C 
ATOM      5  C   UNL     1       1.962   0.832   0.000  1.00  0.00     0.006 C 
ATOM      6  C   UNL     1       0.465   0.920   0.000  1.00  0.00    -0.003 C 
ATOM      7  C   UNL     1      -0.208   2.260   0.000  1.00  0.00     0.004 C 
ATOM      8  C   UNL     1      -1.705   2.348   0.000  1.00  0.00     0.007 C 
ATOM      9  C   UNL     1      -2.530   1.095   0.000  1.00  0.00     0.027 C 
ATOM     10  C   UNL     1      -4.027   1.182   0.000  1.00  0.00     0.149 C 
ATOM     11  C   UNL     1      -4.852  -0.071   0.000  1.00  0.00     0.172 C 
ATOM     12  C   UNL     1      -4.179  -1.411   0.000  1.00  0.00     0.146 C 
ATOM     13  C   UNL     1      -2.682  -1.499   0.000  1.00  0.00     0.042 C 
ATOM     14  C   UNL     1      -1.857  -0.246   0.000  1.00  0.00    -0.022 C 
ATOM     15  C   UNL     1      -1.184  -1.586   0.000  1.00  0.00     0.012 C 
ATOM     16  C   UNL     1      -0.360  -0.333   0.000  1.00  0.00    -0.001 C 
ATOM     17  C   UNL     1       0.313  -1.674   0.000  1.00  0.00     0.005 C 
ATOM     18  C   UNL     1       1.811  -1.762   0.000  1.00  0.00     0.008 C 
ATOM     19  C   UNL     1       2.635  -0.509   0.000  1.00  0.00    -0.019 C 
ATOM     20  C   UNL     1       3.445  -1.772   0.000  1.00  0.00     0.012 C 
ENDROOT
BRANCH   1  21
ATOM     21  C   UNL     1       5.172  -1.350   0.000  1.00  0.00     0.008 C 
ATOM     22  C   UNL     1       6.623  -0.971   0.000  1.00  0.00     0.005 C 
ENDBRANCH   1  21
BRANCH  12  23
ATOM     23  O   UNL     1      -5.004  -2.664   0.000  1.00  0.00    -0.390 OA
ATOM     24  H   UNL     1       0.000   0.000   0.000  1.00  0.00     0.211 HD
ENDBRANCH  12  23
BRANCH  10  25
ATOM     25  O   UNL     1      -4.700   2.523   0.000  1.00  0.00    -0.390 OA
ATOM     26  H   UNL     1       0.000   0.000   0.000  1.00  0.00     0.211 HD
ENDBRANCH  10  25
BRANCH  11  27
ATOM     27  O   UNL     1      -6.349   0.017   0.000  1.00  0.00    -0.388 OA
ATOM     28  H   UNL     1       0.000   0.000   0.000  1.00  0.00     0.211 HD
ENDBRANCH  11  27
TORSDOF 4
