REMARK SMILES C=CC[C@@]12CC(OC)C(=O)C(OC)=C1O[C@H](C)[C@H]2c1cc(OC)c2c(c1)OCO2
REMARK SMILES IDX 4 1 5 2 6 3 9 4 10 5 11 6 14 7 15 8 16 9 17 10 18 11 3 12
REMARK SMILES IDX 2 13 1 14 19 15 20 16 26 17 21 18 25 19 24 20 27 21 29 22
REMARK SMILES IDX 28 23 22 24 23 25 7 26 8 27 12 28 13 29
REMARK H PARENT
ROOT
ATOM      1  C   UNL     1       1.190  -0.582   0.000  1.00  0.00     0.048 C 
ATOM      2  C   UNL     1       1.465   0.893   0.000  1.00  0.00     0.057 C 
ATOM      3  C   UNL     1       2.880   1.391   0.000  1.00  0.00     0.194 C 
ATOM      4  C   UNL     1       4.019   0.416   0.000  1.00  0.00     0.229 C 
ATOM      5  O   UNL     1       5.434   0.914   0.000  1.00  0.00    -0.288 OA
ATOM      6  C   UNL     1       3.743  -1.059   0.000  1.00  0.00     0.203 C 
ATOM      7  C   UNL     1       2.329  -1.558   0.000  1.00  0.00     0.149 C 
ATOM      8  O   UNL     1       1.753  -2.942   0.000  1.00  0.00    -0.490 OA
ATOM      9  C   UNL     1       0.257  -2.823   0.000  1.00  0.00     0.178 C 
ATOM     10  C   UNL     1      -0.718  -3.962   0.000  1.00  0.00     0.053 C 
ATOM     11  C   UNL     1      -0.091  -1.364   0.000  1.00  0.00     0.074 C 
ENDROOT
BRANCH   1  12
ATOM     12  C   UNL     1      -0.045   0.270   0.000  1.00  0.00     0.042 C 
BRANCH  12  13
ATOM     13  C   UNL     1       0.074   1.765   0.000  1.00  0.00    -0.034 C 
ATOM     14  C   UNL     1      -1.161   2.616   0.000  1.00  0.00     0.004 C 
ENDBRANCH  12  13
ENDBRANCH   1  12
BRANCH  11  15
ATOM     15  C   UNL     1      -1.476  -0.788   0.000  1.00  0.00    -0.033 A 
ATOM     16  C   UNL     1      -1.669   0.700   0.000  1.00  0.00     0.055 A 
ATOM     17  C   UNL     1      -2.667  -1.699   0.000  1.00  0.00     0.055 A 
ATOM     18  C   UNL     1      -3.054   1.276   0.000  1.00  0.00     0.165 A 
ATOM     19  C   UNL     1      -4.052  -1.123   0.000  1.00  0.00     0.169 A 
ATOM     20  C   UNL     1      -4.246   0.364   0.000  1.00  0.00     0.207 A 
ATOM     21  O   UNL     1      -5.407  -1.767   0.000  1.00  0.00    -0.453 OA
ATOM     22  O   UNL     1      -5.720   0.640   0.000  1.00  0.00    -0.450 OA
ATOM     23  C   UNL     1      -6.438  -0.677   0.000  1.00  0.00     0.468 C 
BRANCH  18  24
ATOM     24  O   UNL     1      -3.248   2.763   0.000  1.00  0.00    -0.493 OA
ATOM     25  C   UNL     1      -2.057   3.675   0.000  1.00  0.00     0.278 C 
ENDBRANCH  18  24
ENDBRANCH  11  15
BRANCH   3  26
ATOM     26  O   UNL     1       3.155   2.866   0.000  1.00  0.00    -0.373 OA
ATOM     27  C   UNL     1       4.570   3.365   0.000  1.00  0.00     0.196 C 
ENDBRANCH   3  26
BRANCH   6  28
ATOM     28  O   UNL     1       4.883  -2.035   0.000  1.00  0.00    -0.490 OA
ATOM     29  C   UNL     1       6.297  -1.536   0.000  1.00  0.00     0.278 C 
ENDBRANCH   6  28
TORSDOF 6
