REMARK SMILES CC1(C)C(=O)C=C[C@@]2(C)C1=C(O)C(=O)[C@]1(C)[C@@H]2CC[C@@]2(C)[C@@H](c3ccoc3)C[C@H]3O[C@]321
REMARK SMILES IDX 1 1 2 2 3 3 4 4 5 5 6 6 7 7 8 8 9 9 10 10 11 11 13 12 14 13
REMARK SMILES IDX 15 14 16 15 17 16 18 17 19 18 20 19 21 20 22 21 28 22 29 23
REMARK SMILES IDX 30 24 31 25 12 26 23 28 27 29 24 30 26 31 25 32
REMARK H PARENT 12 27
ROOT
ATOM      1  C   UNL     1      -4.587  -1.363   0.000  1.00  0.00     0.025 C 
ATOM      2  C   UNL     1      -4.543   0.136   0.000  1.00  0.00     0.053 C 
ATOM      3  C   UNL     1      -6.027  -0.081   0.000  1.00  0.00     0.025 C 
ATOM      4  C   UNL     1      -5.014   1.560   0.000  1.00  0.00     0.165 C 
ATOM      5  O   UNL     1      -6.483   1.864   0.000  1.00  0.00    -0.294 OA
ATOM      6  C   UNL     1      -4.017   2.680   0.000  1.00  0.00     0.045 C 
ATOM      7  C   UNL     1      -2.548   2.377   0.000  1.00  0.00    -0.012 C 
ATOM      8  C   UNL     1      -2.076   0.953   0.000  1.00  0.00     0.016 C 
ATOM      9  C   UNL     1      -1.079   2.073   0.000  1.00  0.00     0.021 C 
ATOM     10  C   UNL     1      -3.074  -0.168   0.000  1.00  0.00    -0.001 C 
ATOM     11  C   UNL     1      -2.602  -1.591   0.000  1.00  0.00     0.160 C 
ATOM     12  C   UNL     1      -1.133  -1.895   0.000  1.00  0.00     0.206 C 
ATOM     13  O   UNL     1      -0.662  -3.319   0.000  1.00  0.00    -0.290 OA
ATOM     14  C   UNL     1      -0.136  -0.775   0.000  1.00  0.00     0.070 C 
ATOM     15  C   UNL     1      -1.605  -0.471   0.000  1.00  0.00     0.024 C 
ATOM     16  C   UNL     1      -0.608   0.649   0.000  1.00  0.00     0.020 C 
ATOM     17  C   UNL     1       0.390   1.769   0.000  1.00  0.00     0.006 C 
ATOM     18  C   UNL     1       1.859   1.466   0.000  1.00  0.00     0.011 C 
ATOM     19  C   UNL     1       2.330   0.042   0.000  1.00  0.00     0.007 C 
ATOM     20  C   UNL     1       3.439   1.052   0.000  1.00  0.00     0.015 C 
ATOM     21  C   UNL     1       3.704  -0.561   0.000  1.00  0.00     0.034 C 
ATOM     22  C   UNL     1       3.556  -2.053   0.000  1.00  0.00     0.044 C 
ATOM     23  C   UNL     1       2.090  -2.373   0.000  1.00  0.00     0.153 C 
ATOM     24  O   UNL     1       0.590  -2.382   0.000  1.00  0.00    -0.364 OA
ATOM     25  C   UNL     1       1.333  -1.079   0.000  1.00  0.00     0.114 C 
ENDROOT
BRANCH  11  26
ATOM     26  O   UNL     1      -3.600  -2.712   0.000  1.00  0.00    -0.504 OA
ATOM     27  H   UNL     1       0.000   0.000   0.000  1.00  0.00     0.293 HD
ENDBRANCH  11  26
BRANCH  21  28
ATOM     28  C   UNL     1       4.999   0.197   0.000  1.00  0.00    -0.006 A 
ATOM     29  C   UNL     1       5.147   1.689   0.000  1.00  0.00     0.198 A 
ATOM     30  C   UNL     1       6.373  -0.406   0.000  1.00  0.00     0.046 A 
ATOM     31  O   UNL     1       6.613   2.009   0.000  1.00  0.00    -0.472 OA
ATOM     32  C   UNL     1       7.370   0.714   0.000  1.00  0.00     0.195 A 
ENDBRANCH  21  28
TORSDOF 2
