REMARK SMILES C=CC(C)(C)c1cc2ccc(O)cc2oc1=O
REMARK SMILES IDX 6 1 7 2 8 3 9 4 10 5 11 6 13 7 14 8 15 9 16 10 17 11 3 12
REMARK SMILES IDX 4 13 5 14 2 15 1 16 12 17
REMARK H PARENT 12 18
ROOT
ATOM      1  C   UNL     1      -1.328   0.136   0.000  1.00  0.00     0.048 A 
ATOM      2  C   UNL     1      -0.348  -1.000   0.000  1.00  0.00     0.024 A 
ATOM      3  C   UNL     1       1.125  -0.719   0.000  1.00  0.00     0.018 A 
ATOM      4  C   UNL     1       2.105  -1.855   0.000  1.00  0.00     0.016 A 
ATOM      5  C   UNL     1       3.578  -1.574   0.000  1.00  0.00     0.047 A 
ATOM      6  C   UNL     1       4.072  -0.158   0.000  1.00  0.00     0.119 A 
ATOM      7  C   UNL     1       3.092   0.978   0.000  1.00  0.00     0.094 A 
ATOM      8  C   UNL     1       1.619   0.697   0.000  1.00  0.00     0.142 A 
ATOM      9  O   UNL     1       0.639   1.833   0.000  1.00  0.00    -0.422 OA
ATOM     10  C   UNL     1      -0.835   1.552   0.000  1.00  0.00     0.340 A 
ATOM     11  O   UNL     1      -1.814   2.688   0.000  1.00  0.00    -0.246 OA
ENDROOT
BRANCH   1  12
ATOM     12  C   UNL     1      -2.802  -0.145   0.000  1.00  0.00     0.014 C 
ATOM     13  C   UNL     1      -3.083   1.329   0.000  1.00  0.00     0.021 C 
ATOM     14  C   UNL     1      -2.521  -1.618   0.000  1.00  0.00     0.021 C 
BRANCH  12  15
ATOM     15  C   UNL     1      -4.275  -0.425   0.000  1.00  0.00    -0.024 C 
ATOM     16  C   UNL     1      -4.769  -1.842   0.000  1.00  0.00     0.005 C 
ENDBRANCH  12  15
ENDBRANCH   1  12
BRANCH   6  17
ATOM     17  O   UNL     1       5.545   0.123   0.000  1.00  0.00    -0.508 OA
ATOM     18  H   UNL     1       0.000   0.000   0.000  1.00  0.00     0.293 HD
ENDBRANCH   6  17
TORSDOF 3
