REMARK SMILES COC(=O)C[C@H]1C(C)(C)C(=O)C=C2O[C@@]3(C)[C@@]4(CC[C@@]5(C)[C@H](c6ccoc6)OC(=O)[C@H](O)[C@@]345)[C@@]21C
REMARK SMILES IDX 5 1 3 2 4 3 2 4 1 5 6 6 7 7 34 8 10 9 17 10 13 11 12 12
REMARK SMILES IDX 15 13 18 14 33 15 14 16 19 17 31 18 20 19 29 20 22 21 28 22
REMARK SMILES IDX 8 23 9 24 35 25 11 26 16 27 21 28 30 29 32 30 23 32 27 33
REMARK SMILES IDX 24 34 26 35 25 36
REMARK H PARENT 32 31
ROOT
ATOM      1  C   UNL     1       2.198  -1.574   0.000  1.00  0.00     0.128 C 
ENDROOT
BRANCH   1   2
ATOM      2  C   UNL     1       3.223  -2.669   0.000  1.00  0.00     0.305 C 
ATOM      3  O   UNL     1       4.684  -2.328   0.000  1.00  0.00    -0.252 OA
BRANCH   2   4
ATOM      4  O   UNL     1       2.788  -4.104   0.000  1.00  0.00    -0.469 OA
ATOM      5  C   UNL     1       3.813  -5.199   0.000  1.00  0.00     0.282 C 
ENDBRANCH   2   4
ENDBRANCH   1   2
BRANCH   1   6
ATOM      6  C   UNL     1       2.633  -0.139   0.000  1.00  0.00     0.028 C 
ATOM      7  C   UNL     1       4.094   0.202   0.000  1.00  0.00     0.032 C 
ATOM      8  C   UNL     1       1.608   0.956   0.000  1.00  0.00     0.040 C 
ATOM      9  C   UNL     1       4.529   1.637   0.000  1.00  0.00     0.164 C 
ATOM     10  C   UNL     1       0.108   0.926   0.000  1.00  0.00     0.037 C 
ATOM     11  C   UNL     1       2.043   2.391   0.000  1.00  0.00     0.107 C 
ATOM     12  C   UNL     1       3.504   2.732   0.000  1.00  0.00     0.090 C 
ATOM     13  C   UNL     1      -0.383   2.344   0.000  1.00  0.00     0.123 C 
ATOM     14  C   UNL     1       0.294  -0.562   0.000  1.00  0.00     0.014 C 
ATOM     15  C   UNL     1      -1.365   1.209   0.000  1.00  0.00     0.067 C 
ATOM     16  O   UNL     1       0.812   3.249   0.000  1.00  0.00    -0.490 OA
ATOM     17  C   UNL     1      -1.064  -1.199   0.000  1.00  0.00     0.012 C 
ATOM     18  C   UNL     1      -2.140   2.493   0.000  1.00  0.00     0.235 C 
ATOM     19  C   UNL     1      -2.089  -0.104   0.000  1.00  0.00     0.022 C 
ATOM     20  C   UNL     1      -3.640   2.464   0.000  1.00  0.00     0.336 C 
ATOM     21  C   UNL     1      -3.589  -0.134   0.000  1.00  0.00     0.217 C 
ATOM     22  O   UNL     1      -4.364   1.150   0.000  1.00  0.00    -0.455 OA
ATOM     23  C   UNL     1       4.176  -1.296   0.000  1.00  0.00     0.020 C 
ATOM     24  C   UNL     1       5.583   0.022   0.000  1.00  0.00     0.020 C 
ATOM     25  C   UNL     1       1.025  -0.426   0.000  1.00  0.00     0.021 C 
ATOM     26  O   UNL     1       5.990   1.978   0.000  1.00  0.00    -0.294 OA
ATOM     27  C   UNL     1      -0.964   3.138   0.000  1.00  0.00     0.058 C 
ATOM     28  C   UNL     1      -2.672  -1.486   0.000  1.00  0.00     0.016 C 
ATOM     29  O   UNL     1      -4.416   3.748   0.000  1.00  0.00    -0.249 OA
BRANCH  18  30
ATOM     30  O   UNL     1      -1.774   3.407   0.000  1.00  0.00    -0.381 OA
ATOM     31  H   UNL     1       0.000   0.000   0.000  1.00  0.00     0.211 HD
ENDBRANCH  18  30
BRANCH  21  32
ATOM     32  C   UNL     1      -4.313  -1.447   0.000  1.00  0.00     0.031 A 
ATOM     33  C   UNL     1      -3.676  -2.805   0.000  1.00  0.00     0.202 A 
ATOM     34  C   UNL     1      -5.802  -1.633   0.000  1.00  0.00     0.049 A 
ATOM     35  O   UNL     1      -4.771  -3.831   0.000  1.00  0.00    -0.472 OA
ATOM     36  C   UNL     1      -6.085  -3.107   0.000  1.00  0.00     0.195 A 
ENDBRANCH  21  32
ENDBRANCH   1   6
TORSDOF 5
