REMARK SMILES COc1cc([C@H]2[C@H](C(=O)N3CCC=CC3=O)[C@H](c3cc(OC)c(OC)c(OC)c3)[C@H]2C(=O)N2CCC=CC2=O)cc(OC)c1OC
REMARK SMILES IDX 6 1 7 2 17 3 30 4 5 5 3 6 4 7 44 8 41 9 40 10 2 11 1 12
REMARK SMILES IDX 45 13 46 14 42 15 43 16 8 17 9 18 10 19 11 20 15 21 12 22
REMARK SMILES IDX 14 23 13 24 16 25 31 26 32 27 33 28 34 29 38 30 35 31 37 32
REMARK SMILES IDX 36 33 39 34 18 35 19 36 29 37 20 38 26 39 23 40 21 41 22 42
REMARK SMILES IDX 27 43 28 44 24 45 25 46
REMARK H PARENT
ROOT
ATOM      1  C   UNL     1       1.039  -0.221   0.000  1.00  0.00     0.046 C 
ATOM      2  C   UNL     1      -0.261  -0.970   0.000  1.00  0.00     0.096 C 
ATOM      3  C   UNL     1      -1.010   0.330   0.000  1.00  0.00     0.046 C 
ATOM      4  C   UNL     1       0.290   1.079   0.000  1.00  0.00     0.096 C 
ENDROOT
BRANCH   1   5
ATOM      5  C   UNL     1       2.488  -0.610   0.000  1.00  0.00    -0.036 A 
ATOM      6  C   UNL     1       4.324  -2.448   0.000  1.00  0.00     0.164 A 
ATOM      7  C   UNL     1       2.875  -2.059   0.000  1.00  0.00     0.054 A 
ATOM      8  C   UNL     1       5.385  -1.388   0.000  1.00  0.00     0.203 A 
ATOM      9  C   UNL     1       4.998   0.061   0.000  1.00  0.00     0.164 A 
ATOM     10  C   UNL     1       3.549   0.450   0.000  1.00  0.00     0.054 A 
BRANCH   6  11
ATOM     11  O   UNL     1       4.711  -3.897   0.000  1.00  0.00    -0.493 OA
ATOM     12  C   UNL     1       3.650  -4.957   0.000  1.00  0.00     0.278 C 
ENDBRANCH   6  11
BRANCH   8  13
ATOM     13  O   UNL     1       6.834  -1.777   0.000  1.00  0.00    -0.490 OA
ATOM     14  C   UNL     1       7.221  -3.226   0.000  1.00  0.00     0.278 C 
ENDBRANCH   8  13
BRANCH   9  15
ATOM     15  O   UNL     1       6.059   1.121   0.000  1.00  0.00    -0.493 OA
ATOM     16  C   UNL     1       7.508   0.732   0.000  1.00  0.00     0.278 C 
ENDBRANCH   9  15
ENDBRANCH   1   5
BRANCH   2  17
ATOM     17  C   UNL     1      -0.650  -2.418   0.000  1.00  0.00     0.233 C 
ATOM     18  O   UNL     1       0.410  -3.480   0.000  1.00  0.00    -0.274 OA
BRANCH  17  19
ATOM     19  N   UNL     1      -2.099  -2.806   0.000  1.00  0.00    -0.278 N 
ATOM     20  C   UNL     1      -3.159  -1.744   0.000  1.00  0.00     0.133 C 
ATOM     21  C   UNL     1      -2.488  -4.254   0.000  1.00  0.00     0.252 C 
ATOM     22  C   UNL     1      -4.608  -2.132   0.000  1.00  0.00     0.049 C 
ATOM     23  C   UNL     1      -3.937  -4.642   0.000  1.00  0.00     0.067 C 
ATOM     24  C   UNL     1      -4.997  -3.580   0.000  1.00  0.00    -0.019 C 
ATOM     25  O   UNL     1      -1.428  -5.316   0.000  1.00  0.00    -0.269 OA
ENDBRANCH  17  19
ENDBRANCH   2  17
BRANCH   4  26
ATOM     26  C   UNL     1       0.679   2.527   0.000  1.00  0.00     0.233 C 
ATOM     27  O   UNL     1      -0.381   3.589   0.000  1.00  0.00    -0.274 OA
BRANCH  26  28
ATOM     28  N   UNL     1       2.128   2.915   0.000  1.00  0.00    -0.278 N 
ATOM     29  C   UNL     1       3.188   1.853   0.000  1.00  0.00     0.133 C 
ATOM     30  C   UNL     1       2.517   4.364   0.000  1.00  0.00     0.252 C 
ATOM     31  C   UNL     1       4.637   2.241   0.000  1.00  0.00     0.049 C 
ATOM     32  C   UNL     1       3.966   4.751   0.000  1.00  0.00     0.067 C 
ATOM     33  C   UNL     1       5.026   3.689   0.000  1.00  0.00    -0.019 C 
ATOM     34  O   UNL     1       1.457   5.425   0.000  1.00  0.00    -0.269 OA
ENDBRANCH  26  28
ENDBRANCH   4  26
BRANCH   3  35
ATOM     35  C   UNL     1      -2.458   0.719   0.000  1.00  0.00    -0.036 A 
ATOM     36  C   UNL     1      -2.846   2.168   0.000  1.00  0.00     0.054 A 
ATOM     37  C   UNL     1      -3.520  -0.341   0.000  1.00  0.00     0.054 A 
ATOM     38  C   UNL     1      -4.294   2.557   0.000  1.00  0.00     0.164 A 
ATOM     39  C   UNL     1      -4.968   0.048   0.000  1.00  0.00     0.164 A 
ATOM     40  C   UNL     1      -5.356   1.497   0.000  1.00  0.00     0.203 A 
BRANCH  38  41
ATOM     41  O   UNL     1      -4.682   4.006   0.000  1.00  0.00    -0.493 OA
ATOM     42  C   UNL     1      -3.620   5.066   0.000  1.00  0.00     0.278 C 
ENDBRANCH  38  41
BRANCH  39  43
ATOM     43  O   UNL     1      -6.030  -1.012   0.000  1.00  0.00    -0.493 OA
ATOM     44  C   UNL     1      -7.478  -0.623   0.000  1.00  0.00     0.278 C 
ENDBRANCH  39  43
BRANCH  40  45
ATOM     45  O   UNL     1      -6.804   1.886   0.000  1.00  0.00    -0.490 OA
ATOM     46  C   UNL     1      -7.866   0.826   0.000  1.00  0.00     0.278 C 
ENDBRANCH  40  45
ENDBRANCH   3  35
TORSDOF 12
