REMARK SMILES COC(=O)[C@@]1(C)C[C@@H]2[C@@](C)(CC(C)=C3C4=CC=C5C(=CC(=O)C(O)=C5C)[C@]4(C)CC[C@]32C)C(=O)[C@@H]1O
REMARK SMILES IDX 5 1 6 2 7 3 8 4 9 5 10 6 11 7 12 8 13 9 14 10 15 11 16 12
REMARK SMILES IDX 17 13 18 14 19 15 20 16 21 17 22 18 23 19 25 20 26 21 27 22
REMARK SMILES IDX 28 23 29 24 30 25 31 26 32 27 33 28 34 29 35 30 3 31 4 32
REMARK SMILES IDX 2 33 1 34 36 35 24 37
REMARK H PARENT 36 36 24 38
ROOT
ATOM      1  C   UNL     1       4.635  -0.768   0.000  1.00  0.00     0.098 C 
ATOM      2  C   UNL     1       6.094  -1.114   0.000  1.00  0.00     0.027 C 
ATOM      3  C   UNL     1       3.145  -0.942   0.000  1.00  0.00     0.027 C 
ATOM      4  C   UNL     1       2.249   0.261   0.000  1.00  0.00     0.014 C 
ATOM      5  C   UNL     1       2.843   1.639   0.000  1.00  0.00     0.036 C 
ATOM      6  C   UNL     1       3.437   3.016   0.000  1.00  0.00     0.020 C 
ATOM      7  C   UNL     1       1.947   2.842   0.000  1.00  0.00     0.046 C 
ATOM      8  C   UNL     1       0.457   2.668   0.000  1.00  0.00    -0.068 C 
ATOM      9  C   UNL     1      -0.438   3.871   0.000  1.00  0.00     0.040 C 
ATOM     10  C   UNL     1      -0.137   1.290   0.000  1.00  0.00    -0.039 C 
ATOM     11  C   UNL     1      -1.627   1.116   0.000  1.00  0.00    -0.034 C 
ATOM     12  C   UNL     1      -2.522   2.320   0.000  1.00  0.00     0.005 C 
ATOM     13  C   UNL     1      -4.012   2.145   0.000  1.00  0.00     0.009 C 
ATOM     14  C   UNL     1      -4.606   0.768   0.000  1.00  0.00    -0.015 C 
ATOM     15  C   UNL     1      -3.711  -0.435   0.000  1.00  0.00    -0.026 C 
ATOM     16  C   UNL     1      -4.305  -1.812   0.000  1.00  0.00     0.061 C 
ATOM     17  C   UNL     1      -5.795  -1.987   0.000  1.00  0.00     0.220 C 
ATOM     18  O   UNL     1      -6.389  -3.364   0.000  1.00  0.00    -0.286 OA
ATOM     19  C   UNL     1      -6.690  -0.783   0.000  1.00  0.00     0.166 C 
ATOM     20  C   UNL     1      -6.096   0.594   0.000  1.00  0.00     0.002 C 
ATOM     21  C   UNL     1      -6.992   1.797   0.000  1.00  0.00     0.049 C 
ATOM     22  C   UNL     1      -2.221  -0.261   0.000  1.00  0.00     0.018 C 
ATOM     23  C   UNL     1      -2.815  -1.638   0.000  1.00  0.00     0.021 C 
ATOM     24  C   UNL     1      -1.325  -1.464   0.000  1.00  0.00     0.017 C 
ATOM     25  C   UNL     1       0.165  -1.290   0.000  1.00  0.00     0.013 C 
ATOM     26  C   UNL     1       0.759   0.087   0.000  1.00  0.00    -0.003 C 
ATOM     27  C   UNL     1       1.655  -1.116   0.000  1.00  0.00     0.017 C 
ATOM     28  C   UNL     1       4.333   1.813   0.000  1.00  0.00     0.168 C 
ATOM     29  O   UNL     1       4.927   3.190   0.000  1.00  0.00    -0.296 OA
ATOM     30  C   UNL     1       5.229   0.610   0.000  1.00  0.00     0.198 C 
ENDROOT
BRANCH   1  31
ATOM     31  C   UNL     1       4.547  -2.265   0.000  1.00  0.00     0.314 C 
ATOM     32  O   UNL     1       3.207  -2.938   0.000  1.00  0.00    -0.252 OA
BRANCH  31  33
ATOM     33  O   UNL     1       5.801  -3.089   0.000  1.00  0.00    -0.469 OA
ATOM     34  C   UNL     1       5.713  -4.587   0.000  1.00  0.00     0.282 C 
ENDBRANCH  31  33
ENDBRANCH   1  31
BRANCH  30  35
ATOM     35  O   UNL     1       6.718   0.784   0.000  1.00  0.00    -0.384 OA
ATOM     36  H   UNL     1       0.000   0.000   0.000  1.00  0.00     0.211 HD
ENDBRANCH  30  35
BRANCH  19  37
ATOM     37  O   UNL     1      -8.180  -0.958   0.000  1.00  0.00    -0.504 OA
ATOM     38  H   UNL     1       0.000   0.000   0.000  1.00  0.00     0.293 HD
ENDBRANCH  19  37
TORSDOF 4
