REMARK SMILES CC(C)c1cc2c(cc1O)[C@@]1(C)CCC[C@](C)(C(=O)O)[C@@H]1CC2
REMARK SMILES IDX 4 1 5 2 6 3 7 4 8 5 9 6 11 7 12 8 13 9 14 10 15 11 16 12
REMARK SMILES IDX 17 13 21 14 22 15 23 16 2 17 1 18 3 19 10 20 18 22 19 23
REMARK SMILES IDX 20 24
REMARK H PARENT 10 21 20 25
ROOT
ATOM      1  C   UNL     1      -3.605   0.321   0.000  1.00  0.00    -0.003 A 
ATOM      2  C   UNL     1      -2.601   1.435   0.000  1.00  0.00     0.011 A 
ATOM      3  C   UNL     1      -1.134   1.123   0.000  1.00  0.00    -0.044 A 
ATOM      4  C   UNL     1      -0.670  -0.303   0.000  1.00  0.00    -0.035 A 
ATOM      5  C   UNL     1      -1.674  -1.418   0.000  1.00  0.00     0.051 A 
ATOM      6  C   UNL     1      -3.141  -1.106   0.000  1.00  0.00     0.119 A 
ATOM      7  C   UNL     1       0.797  -0.615   0.000  1.00  0.00    -0.003 C 
ATOM      8  C   UNL     1      -0.207  -1.730   0.000  1.00  0.00     0.017 C 
ATOM      9  C   UNL     1       1.261  -2.042   0.000  1.00  0.00     0.012 C 
ATOM     10  C   UNL     1       2.728  -2.353   0.000  1.00  0.00     0.002 C 
ATOM     11  C   UNL     1       3.732  -1.239   0.000  1.00  0.00     0.019 C 
ATOM     12  C   UNL     1       3.268   0.188   0.000  1.00  0.00     0.069 C 
ATOM     13  C   UNL     1       3.320   1.687   0.000  1.00  0.00     0.024 C 
ATOM     14  C   UNL     1       1.801   0.500   0.000  1.00  0.00     0.017 C 
ATOM     15  C   UNL     1       1.337   1.926   0.000  1.00  0.00     0.010 C 
ATOM     16  C   UNL     1      -0.130   2.238   0.000  1.00  0.00     0.036 C 
ENDROOT
BRANCH   1  17
ATOM     17  C   UNL     1      -5.072   0.632   0.000  1.00  0.00     0.017 C 
ATOM     18  C   UNL     1      -5.535   2.059   0.000  1.00  0.00     0.012 C 
ATOM     19  C   UNL     1      -6.075  -0.482   0.000  1.00  0.00     0.012 C 
ENDBRANCH   1  17
BRANCH   6  20
ATOM     20  O   UNL     1      -4.145  -2.221   0.000  1.00  0.00    -0.508 OA
ATOM     21  H   UNL     1       0.000   0.000   0.000  1.00  0.00     0.293 HD
ENDBRANCH   6  20
BRANCH  12  22
ATOM     22  C   UNL     1       4.753   0.397   0.000  1.00  0.00     0.309 C 
ATOM     23  O   UNL     1       5.315   1.788   0.000  1.00  0.00    -0.252 OA
BRANCH  22  24
ATOM     24  O   UNL     1       5.677  -0.785   0.000  1.00  0.00    -0.481 OA
ATOM     25  H   UNL     1       0.000   0.000   0.000  1.00  0.00     0.296 HD
ENDBRANCH  22  24
ENDBRANCH  12  22
TORSDOF 4
