REMARK SMILES O=c1ccc2ccccc2o1
REMARK SMILES IDX 1 1 2 2 3 3 4 4 5 5 6 6 7 7 8 8 9 9 10 10 11 11
REMARK H PARENT
ROOT
ATOM      1  O   UNL     1      -3.711   0.800   0.000  1.00  0.00    -0.246 OA
ATOM      2  C   UNL     1      -2.312   0.259   0.000  1.00  0.00     0.336 A 
ATOM      3  C   UNL     1      -2.080  -1.222   0.000  1.00  0.00     0.094 A 
ATOM      4  C   UNL     1      -0.680  -1.763   0.000  1.00  0.00     0.019 A 
ATOM      5  C   UNL     1       0.487  -0.821   0.000  1.00  0.00     0.018 A 
ATOM      6  C   UNL     1       1.886  -1.361   0.000  1.00  0.00     0.012 A 
ATOM      7  C   UNL     1       3.054  -0.419   0.000  1.00  0.00     0.001 A 
ATOM      8  C   UNL     1       2.822   1.063   0.000  1.00  0.00     0.004 A 
ATOM      9  C   UNL     1       1.423   1.603   0.000  1.00  0.00     0.048 A 
ATOM     10  C   UNL     1       0.255   0.661   0.000  1.00  0.00     0.138 A 
ATOM     11  O   UNL     1      -1.144   1.201   0.000  1.00  0.00    -0.423 OA
ENDROOT
TORSDOF 0
