REMARK SMILES COc1ccc(C[C@H](C)[C@H](C)[C@@H](O)c2ccc(OC)c(OC)c2)cc1OC
REMARK SMILES IDX 8 1 9 2 7 3 6 4 3 5 4 6 25 7 5 8 24 9 2 10 1 11 26 12 27 13
REMARK SMILES IDX 10 14 11 15 12 16 13 17 14 19 15 20 23 21 16 22 20 23 17 24
REMARK SMILES IDX 21 25 22 26 18 27 19 28
REMARK H PARENT 13 18
ROOT
ATOM      1  C   UNL     1      -0.869  -3.007   0.000  1.00  0.00    -0.004 C 
ATOM      2  C   UNL     1      -0.444  -4.446   0.000  1.00  0.00     0.008 C 
ENDROOT
BRANCH   1   3
ATOM      3  C   UNL     1      -2.327  -2.655   0.000  1.00  0.00     0.039 C 
BRANCH   3   4
ATOM      4  C   UNL     1      -2.751  -1.217   0.000  1.00  0.00    -0.044 A 
ATOM      5  C   UNL     1      -3.600   1.661   0.000  1.00  0.00     0.160 A 
ATOM      6  C   UNL     1      -2.142   1.309   0.000  1.00  0.00     0.051 A 
ATOM      7  C   UNL     1      -4.634   0.574   0.000  1.00  0.00     0.160 A 
ATOM      8  C   UNL     1      -1.717  -0.130   0.000  1.00  0.00     0.008 A 
ATOM      9  C   UNL     1      -4.209  -0.865   0.000  1.00  0.00     0.054 A 
BRANCH   5  10
ATOM     10  O   UNL     1      -4.024   3.099   0.000  1.00  0.00    -0.493 OA
ATOM     11  C   UNL     1      -2.990   4.186   0.000  1.00  0.00     0.278 C 
ENDBRANCH   5  10
BRANCH   7  12
ATOM     12  O   UNL     1      -6.092   0.926   0.000  1.00  0.00    -0.493 OA
ATOM     13  C   UNL     1      -7.125  -0.161   0.000  1.00  0.00     0.278 C 
ENDBRANCH   7  12
ENDBRANCH   3   4
ENDBRANCH   1   3
BRANCH   1  14
ATOM     14  C   UNL     1       0.165  -1.921   0.000  1.00  0.00     0.022 C 
ATOM     15  C   UNL     1      -0.259  -0.482   0.000  1.00  0.00     0.011 C 
BRANCH  14  16
ATOM     16  C   UNL     1       1.623  -2.272   0.000  1.00  0.00     0.147 C 
BRANCH  16  17
ATOM     17  O   UNL     1       2.048  -3.711   0.000  1.00  0.00    -0.388 OA
ATOM     18  H   UNL     1       0.000   0.000   0.000  1.00  0.00     0.211 HD
ENDBRANCH  16  17
BRANCH  16  19
ATOM     19  C   UNL     1       2.657  -1.186   0.000  1.00  0.00    -0.015 A 
ATOM     20  C   UNL     1       4.115  -1.538   0.000  1.00  0.00     0.010 A 
ATOM     21  C   UNL     1       2.233   0.253   0.000  1.00  0.00     0.056 A 
ATOM     22  C   UNL     1       5.149  -0.451   0.000  1.00  0.00     0.051 A 
ATOM     23  C   UNL     1       3.267   1.340   0.000  1.00  0.00     0.161 A 
ATOM     24  C   UNL     1       4.725   0.988   0.000  1.00  0.00     0.160 A 
BRANCH  23  25
ATOM     25  O   UNL     1       2.842   2.779   0.000  1.00  0.00    -0.493 OA
ATOM     26  C   UNL     1       1.384   3.131   0.000  1.00  0.00     0.278 C 
ENDBRANCH  23  25
BRANCH  24  27
ATOM     27  O   UNL     1       5.759   2.075   0.000  1.00  0.00    -0.493 OA
ATOM     28  C   UNL     1       7.217   1.723   0.000  1.00  0.00     0.278 C 
ENDBRANCH  24  27
ENDBRANCH  16  19
ENDBRANCH  14  16
ENDBRANCH   1  14
TORSDOF 10
