REMARK SMILES COc1ccc(-c2coc3cc(OCC=C(C)C)ccc3c2=O)cc1OC
REMARK SMILES IDX 13 1 12 2 7 3 8 4 22 5 9 6 21 7 10 8 20 9 11 10 19 11 23 12
REMARK SMILES IDX 6 13 3 14 4 15 25 16 5 17 24 18 2 19 1 20 26 21 27 22 14 23
REMARK SMILES IDX 15 24 16 25 17 26 18 27
REMARK H PARENT
ROOT
ATOM      1  O   UNL     1       5.254   1.283   0.000  1.00  0.00    -0.489 OA
ENDROOT
BRANCH   1   2
ATOM      2  C   UNL     1       3.754   1.287   0.000  1.00  0.00     0.123 A 
ATOM      3  C   UNL     1      -1.500   0.005   0.000  1.00  0.00     0.065 A 
ATOM      4  C   UNL     1      -0.754  -1.297   0.000  1.00  0.00     0.208 A 
ATOM      5  C   UNL     1      -0.746   1.301   0.000  1.00  0.00     0.200 A 
ATOM      6  O   UNL     1       0.746  -1.301   0.000  1.00  0.00    -0.463 OA
ATOM      7  C   UNL     1       0.754   1.297   0.000  1.00  0.00     0.066 A 
ATOM      8  C   UNL     1       1.500  -0.005   0.000  1.00  0.00     0.141 A 
ATOM      9  C   UNL     1       1.508   2.593   0.000  1.00  0.00     0.020 A 
ATOM     10  C   UNL     1       3.000  -0.009   0.000  1.00  0.00     0.094 A 
ATOM     11  C   UNL     1       3.008   2.589   0.000  1.00  0.00     0.047 A 
ATOM     12  O   UNL     1      -1.492   2.603   0.000  1.00  0.00    -0.288 OA
BRANCH   3  13
ATOM     13  C   UNL     1      -3.000   0.009   0.000  1.00  0.00    -0.007 A 
ATOM     14  C   UNL     1      -6.000   0.019   0.000  1.00  0.00     0.160 A 
ATOM     15  C   UNL     1      -5.246   1.315   0.000  1.00  0.00     0.051 A 
ATOM     16  C   UNL     1      -5.254  -1.283   0.000  1.00  0.00     0.161 A 
ATOM     17  C   UNL     1      -3.746   1.311   0.000  1.00  0.00     0.013 A 
ATOM     18  C   UNL     1      -3.754  -1.287   0.000  1.00  0.00     0.059 A 
BRANCH  14  19
ATOM     19  O   UNL     1      -7.500   0.023   0.000  1.00  0.00    -0.493 OA
ATOM     20  C   UNL     1      -8.246   1.325   0.000  1.00  0.00     0.278 C 
ENDBRANCH  14  19
BRANCH  16  21
ATOM     21  O   UNL     1      -6.008  -2.579   0.000  1.00  0.00    -0.493 OA
ATOM     22  C   UNL     1      -5.262  -3.881   0.000  1.00  0.00     0.278 C 
ENDBRANCH  16  21
ENDBRANCH   3  13
ENDBRANCH   1   2
BRANCH   1  23
ATOM     23  C   UNL     1       6.000  -0.019   0.000  1.00  0.00     0.257 C 
BRANCH  23  24
ATOM     24  C   UNL     1       7.500  -0.023   0.000  1.00  0.00     0.012 C 
BRANCH  24  25
ATOM     25  C   UNL     1       8.246  -1.325   0.000  1.00  0.00    -0.077 C 
ATOM     26  C   UNL     1       9.746  -1.329   0.000  1.00  0.00     0.039 C 
ATOM     27  C   UNL     1       7.492  -2.621   0.000  1.00  0.00     0.039 C 
ENDBRANCH  24  25
ENDBRANCH  23  24
ENDBRANCH   1  23
TORSDOF 7
