REMARK SMILES O=c1cc(-c2ccc(O)c(O)c2)oc2cc(O)c([C@@H]3O[C@H](CO)[C@@H](O)[C@H](O)[C@H]3O)c(O)c12
REMARK SMILES IDX 1 1 2 2 3 3 4 4 13 5 14 6 15 7 16 8 18 9 30 10 32 11 5 12
REMARK SMILES IDX 6 13 12 14 7 15 10 16 8 17 11 18 9 20 31 22 19 24 20 25
REMARK SMILES IDX 28 26 21 27 26 28 24 29 29 30 22 32 23 33 27 35 25 37 17 39
REMARK H PARENT 11 19 9 21 31 23 29 31 23 34 27 36 25 38 17 40
ROOT
ATOM      1  O   UNL     1      -0.776  -3.048   0.000  1.00  0.00    -0.289 OA
ATOM      2  C   UNL     1      -1.341  -1.659   0.000  1.00  0.00     0.197 A 
ATOM      3  C   UNL     1      -2.827  -1.453   0.000  1.00  0.00     0.100 A 
ATOM      4  C   UNL     1      -3.392  -0.064   0.000  1.00  0.00     0.138 A 
ATOM      5  O   UNL     1      -2.471   1.120   0.000  1.00  0.00    -0.456 OA
ATOM      6  C   UNL     1      -0.986   0.915   0.000  1.00  0.00     0.146 A 
ATOM      7  C   UNL     1      -0.065   2.099   0.000  1.00  0.00     0.094 A 
ATOM      8  C   UNL     1       1.421   1.894   0.000  1.00  0.00     0.128 A 
ATOM      9  C   UNL     1       1.986   0.504   0.000  1.00  0.00     0.068 A 
ATOM     10  C   UNL     1       1.065  -0.680   0.000  1.00  0.00     0.140 A 
ATOM     11  C   UNL     1      -0.420  -0.475   0.000  1.00  0.00     0.107 A 
ENDROOT
BRANCH   4  12
ATOM     12  C   UNL     1      -4.878   0.142   0.000  1.00  0.00     0.021 A 
ATOM     13  C   UNL     1      -5.443   1.531   0.000  1.00  0.00     0.016 A 
ATOM     14  C   UNL     1      -5.799  -1.042   0.000  1.00  0.00     0.062 A 
ATOM     15  C   UNL     1      -6.929   1.737   0.000  1.00  0.00     0.051 A 
ATOM     16  C   UNL     1      -7.285  -0.837   0.000  1.00  0.00     0.158 A 
ATOM     17  C   UNL     1      -7.850   0.552   0.000  1.00  0.00     0.157 A 
BRANCH  16  18
ATOM     18  O   UNL     1      -8.206  -2.021   0.000  1.00  0.00    -0.504 OA
ATOM     19  H   UNL     1       0.000   0.000   0.000  1.00  0.00     0.293 HD
ENDBRANCH  16  18
BRANCH  17  20
ATOM     20  O   UNL     1      -9.336   0.758   0.000  1.00  0.00    -0.504 OA
ATOM     21  H   UNL     1       0.000   0.000   0.000  1.00  0.00     0.293 HD
ENDBRANCH  17  20
ENDBRANCH   4  12
BRANCH  10  22
ATOM     22  O   UNL     1       1.630  -2.070   0.000  1.00  0.00    -0.506 OA
ATOM     23  H   UNL     1       0.000   0.000   0.000  1.00  0.00     0.293 HD
ENDBRANCH  10  22
BRANCH   9  24
ATOM     24  C   UNL     1       3.472   0.299   0.000  1.00  0.00     0.188 C 
ATOM     25  O   UNL     1       4.037  -1.091   0.000  1.00  0.00    -0.362 OA
ATOM     26  C   UNL     1       4.393   1.483   0.000  1.00  0.00     0.179 C 
ATOM     27  C   UNL     1       5.523  -1.296   0.000  1.00  0.00     0.176 C 
ATOM     28  C   UNL     1       5.879   1.277   0.000  1.00  0.00     0.177 C 
ATOM     29  C   UNL     1       6.444  -0.112   0.000  1.00  0.00     0.177 C 
BRANCH  26  30
ATOM     30  O   UNL     1       3.828   2.872   0.000  1.00  0.00    -0.387 OA
ATOM     31  H   UNL     1       0.000   0.000   0.000  1.00  0.00     0.211 HD
ENDBRANCH  26  30
BRANCH  27  32
ATOM     32  C   UNL     1       6.088  -2.686   0.000  1.00  0.00     0.191 C 
BRANCH  32  33
ATOM     33  O   UNL     1       5.167  -3.870   0.000  1.00  0.00    -0.394 OA
ATOM     34  H   UNL     1       0.000   0.000   0.000  1.00  0.00     0.210 HD
ENDBRANCH  32  33
ENDBRANCH  27  32
BRANCH  28  35
ATOM     35  O   UNL     1       6.800   2.461   0.000  1.00  0.00    -0.387 OA
ATOM     36  H   UNL     1       0.000   0.000   0.000  1.00  0.00     0.211 HD
ENDBRANCH  28  35
BRANCH  29  37
ATOM     37  O   UNL     1       7.930  -0.318   0.000  1.00  0.00    -0.388 OA
ATOM     38  H   UNL     1       0.000   0.000   0.000  1.00  0.00     0.211 HD
ENDBRANCH  29  37
ENDBRANCH   9  24
BRANCH   8  39
ATOM     39  O   UNL     1       2.342   3.078   0.000  1.00  0.00    -0.507 OA
ATOM     40  H   UNL     1       0.000   0.000   0.000  1.00  0.00     0.293 HD
ENDBRANCH   8  39
TORSDOF 11
