REMARK SMILES C=CC(=C)CC[C@]1(C)[C@H](C)[C@@H](OC(=O)/C=C/C=C/CCCCC)[C@H](O)[C@@]23C(=C[C@H](O)C[C@@H]12)[C@@H](OC(C)=O)O[C@@H]3OC(C)=O
REMARK SMILES IDX 15 1 13 2 14 3 12 4 11 5 7 6 9 7 32 8 31 9 26 10 24 11 29 12
REMARK SMILES IDX 27 13 39 14 28 15 33 16 38 17 8 18 10 19 6 20 5 21 3 22 4 23
REMARK SMILES IDX 2 24 1 25 25 26 30 28 40 30 41 31 42 32 43 33 34 34 35 35
REMARK SMILES IDX 36 36 37 37 16 38 17 39 18 40 19 41 20 42 21 43 22 44 23 45
REMARK H PARENT 25 27 30 29
ROOT
ATOM      1  C   UNL     1      -3.088  -1.199   0.000  1.00  0.00     0.093 C 
ENDROOT
BRANCH   1   2
ATOM      2  C   UNL     1      -1.800  -0.431   0.000  1.00  0.00     0.331 C 
ATOM      3  O   UNL     1      -1.822   1.069   0.000  1.00  0.00    -0.247 OA
BRANCH   2   4
ATOM      4  O   UNL     1      -0.490  -1.162   0.000  1.00  0.00    -0.456 OA
BRANCH   4   5
ATOM      5  C   UNL     1       0.798  -0.393   0.000  1.00  0.00     0.210 C 
ATOM      6  C   UNL     1       2.064   1.875   0.000  1.00  0.00    -0.022 C 
ATOM      7  C   UNL     1       0.776   1.106   0.000  1.00  0.00     0.036 C 
ATOM      8  C   UNL     1       3.374   1.144   0.000  1.00  0.00     0.018 C 
ATOM      9  C   UNL     1       4.662   1.912   0.000  1.00  0.00     0.041 C 
ATOM     10  C   UNL     1       3.395  -0.356   0.000  1.00  0.00     0.093 C 
ATOM     11  C   UNL     1       2.107  -1.125   0.000  1.00  0.00     0.172 C 
ATOM     12  C   UNL     1       5.972   1.181   0.000  1.00  0.00     0.137 C 
ATOM     13  C   UNL     1       4.705  -1.087   0.000  1.00  0.00     0.012 C 
ATOM     14  C   UNL     1       3.921  -0.184   0.000  1.00  0.00     0.328 C 
ATOM     15  C   UNL     1       5.993  -0.319   0.000  1.00  0.00     0.011 C 
ATOM     16  C   UNL     1       4.576  -0.549   0.000  1.00  0.00     0.343 C 
ATOM     17  O   UNL     1       3.949  -0.903   0.000  1.00  0.00    -0.298 OA
ATOM     18  C   UNL     1       3.012   3.038   0.000  1.00  0.00     0.012 C 
ATOM     19  C   UNL     1      -0.534   1.838   0.000  1.00  0.00     0.012 C 
BRANCH   6  20
ATOM     20  C   UNL     1       1.083   3.010   0.000  1.00  0.00     0.012 C 
BRANCH  20  21
ATOM     21  C   UNL     1       1.576   4.427   0.000  1.00  0.00     0.035 C 
BRANCH  21  22
ATOM     22  C   UNL     1       0.596   5.562   0.000  1.00  0.00    -0.056 C 
ATOM     23  C   UNL     1       1.088   6.979   0.000  1.00  0.00     0.012 C 
BRANCH  22  24
ATOM     24  C   UNL     1      -0.878   5.280   0.000  1.00  0.00    -0.005 C 
ATOM     25  C   UNL     1      -1.858   6.415   0.000  1.00  0.00     0.009 C 
ENDBRANCH  22  24
ENDBRANCH  21  22
ENDBRANCH  20  21
ENDBRANCH   6  20
BRANCH  11  26
ATOM     26  O   UNL     1       1.765  -2.585   0.000  1.00  0.00    -0.388 OA
ATOM     27  H   UNL     1       0.000   0.000   0.000  1.00  0.00     0.211 HD
ENDBRANCH  11  26
BRANCH  12  28
ATOM     28  O   UNL     1       7.260   1.950   0.000  1.00  0.00    -0.389 OA
ATOM     29  H   UNL     1       0.000   0.000   0.000  1.00  0.00     0.211 HD
ENDBRANCH  12  28
BRANCH  14  30
ATOM     30  O   UNL     1       0.824  -1.085   0.000  1.00  0.00    -0.435 OA
BRANCH  30  31
ATOM     31  C   UNL     1      -0.164  -2.214   0.000  1.00  0.00     0.304 C 
ATOM     32  C   UNL     1      -1.635  -1.923   0.000  1.00  0.00     0.139 C 
ATOM     33  O   UNL     1       0.320  -3.634   0.000  1.00  0.00    -0.253 OA
ENDBRANCH  30  31
ENDBRANCH  14  30
BRANCH  16  34
ATOM     34  O   UNL     1       5.434  -3.659   0.000  1.00  0.00    -0.432 OA
BRANCH  34  35
ATOM     35  C   UNL     1       4.991  -5.092   0.000  1.00  0.00     0.305 C 
ATOM     36  C   UNL     1       6.011  -6.192   0.000  1.00  0.00     0.139 C 
ATOM     37  O   UNL     1       3.529  -5.425   0.000  1.00  0.00    -0.253 OA
ENDBRANCH  34  35
ENDBRANCH  16  34
ENDBRANCH   4   5
ENDBRANCH   2   4
ENDBRANCH   1   2
BRANCH   1  38
ATOM     38  C   UNL     1      -4.398  -0.468   0.000  1.00  0.00     0.007 C 
BRANCH  38  39
ATOM     39  C   UNL     1      -5.686  -1.237   0.000  1.00  0.00    -0.004 C 
BRANCH  39  40
ATOM     40  C   UNL     1      -6.996  -0.505   0.000  1.00  0.00    -0.027 C 
BRANCH  40  41
ATOM     41  C   UNL     1      -8.284  -1.274   0.000  1.00  0.00     0.027 C 
BRANCH  41  42
ATOM     42  C   UNL     1      -9.594  -0.543   0.000  1.00  0.00     0.004 C 
BRANCH  42  43
ATOM     43  C   UNL     1     -10.882  -1.312   0.000  1.00  0.00     0.000 C 
BRANCH  43  44
ATOM     44  C   UNL     1     -12.191  -0.580   0.000  1.00  0.00    -0.003 C 
ATOM     45  C   UNL     1     -13.480  -1.349   0.000  1.00  0.00     0.004 C 
ENDBRANCH  43  44
ENDBRANCH  42  43
ENDBRANCH  41  42
ENDBRANCH  40  41
ENDBRANCH  39  40
ENDBRANCH  38  39
ENDBRANCH   1  38
TORSDOF 20
