REMARK SMILES C=C(C)[C@@H]1CC[C@]2(C)CC[C@]3(C)[C@H](C(O)C[C@@H]4[C@@]5(C)CC[C@H](O)C(C)(C)[C@@H]5CC[C@]43C)[C@@H]12
REMARK SMILES IDX 4 1 5 2 6 3 7 4 8 5 9 6 10 7 11 8 12 9 13 10 14 11 16 12
REMARK SMILES IDX 17 13 18 14 19 15 20 16 21 17 22 18 24 19 25 20 26 21 27 22
REMARK SMILES IDX 28 23 29 24 30 25 31 26 32 27 2 28 1 29 3 30 15 31 23 33
REMARK H PARENT 15 32 23 34
ROOT
ATOM      1  C   UNL     1       4.456  -0.804   0.000  1.00  0.00     0.018 C 
ATOM      2  C   UNL     1       5.740  -0.027   0.000  1.00  0.00     0.009 C 
ATOM      3  C   UNL     1       5.398   1.433   0.000  1.00  0.00     0.008 C 
ATOM      4  C   UNL     1       3.903   1.559   0.000  1.00  0.00    -0.029 C 
ATOM      5  C   UNL     1       4.627   2.873   0.000  1.00  0.00     0.011 C 
ATOM      6  C   UNL     1       2.997   2.755   0.000  1.00  0.00     0.007 C 
ATOM      7  C   UNL     1       1.509   2.567   0.000  1.00  0.00     0.008 C 
ATOM      8  C   UNL     1       0.927   1.185   0.000  1.00  0.00    -0.021 C 
ATOM      9  C   UNL     1       0.345  -0.198   0.000  1.00  0.00     0.012 C 
ATOM     10  C   UNL     1       1.833  -0.010   0.000  1.00  0.00     0.028 C 
ATOM     11  C   UNL     1       1.251  -1.393   0.000  1.00  0.00     0.118 C 
ATOM     12  C   UNL     1      -0.237  -1.580   0.000  1.00  0.00     0.036 C 
ATOM     13  C   UNL     1      -1.143  -0.385   0.000  1.00  0.00     0.004 C 
ATOM     14  C   UNL     1      -2.632  -0.572   0.000  1.00  0.00    -0.026 C 
ATOM     15  C   UNL     1      -1.726  -1.767   0.000  1.00  0.00     0.012 C 
ATOM     16  C   UNL     1      -3.214  -1.954   0.000  1.00  0.00     0.010 C 
ATOM     17  C   UNL     1      -4.702  -2.142   0.000  1.00  0.00     0.033 C 
ATOM     18  C   UNL     1      -5.608  -0.946   0.000  1.00  0.00     0.120 C 
ATOM     19  C   UNL     1      -5.026   0.436   0.000  1.00  0.00    -0.006 C 
ATOM     20  C   UNL     1      -4.952   1.934   0.000  1.00  0.00     0.014 C 
ATOM     21  C   UNL     1      -6.489   0.769   0.000  1.00  0.00     0.014 C 
ATOM     22  C   UNL     1      -3.538   0.623   0.000  1.00  0.00     0.003 C 
ATOM     23  C   UNL     1      -2.956   2.006   0.000  1.00  0.00     0.005 C 
ATOM     24  C   UNL     1      -1.468   2.193   0.000  1.00  0.00     0.008 C 
ATOM     25  C   UNL     1      -0.561   0.998   0.000  1.00  0.00    -0.023 C 
ATOM     26  C   UNL     1       0.021   2.380   0.000  1.00  0.00     0.012 C 
ATOM     27  C   UNL     1       3.321   0.177   0.000  1.00  0.00     0.008 C 
ENDROOT
BRANCH   1  28
ATOM     28  C   UNL     1       4.330  -2.299   0.000  1.00  0.00    -0.077 C 
ATOM     29  C   UNL     1       2.973  -2.936   0.000  1.00  0.00     0.008 C 
ATOM     30  C   UNL     1       5.561  -3.155   0.000  1.00  0.00     0.039 C 
ENDBRANCH   1  28
BRANCH  11  31
ATOM     31  O   UNL     1       2.157  -2.588   0.000  1.00  0.00    -0.393 OA
ATOM     32  H   UNL     1       0.000   0.000   0.000  1.00  0.00     0.210 HD
ENDBRANCH  11  31
BRANCH  18  33
ATOM     33  O   UNL     1      -7.096  -1.134   0.000  1.00  0.00    -0.393 OA
ATOM     34  H   UNL     1       0.000   0.000   0.000  1.00  0.00     0.210 HD
ENDBRANCH  18  33
TORSDOF 3
