REMARK SMILES O=C1c2ccc(O)cc2O[C@@H]2c3cc(O)c(O)cc3CO[C@@H]12
REMARK SMILES IDX 1 1 2 2 3 3 4 4 5 5 6 6 8 7 9 8 10 9 11 10 12 11 13 12 14 13
REMARK SMILES IDX 16 14 18 15 19 16 20 17 21 18 22 19 7 20 15 22 17 24
REMARK H PARENT 7 21 15 23 17 25
ROOT
ATOM      1  O   UNL     1       2.310  -3.242   0.000  1.00  0.00    -0.291 OA
ATOM      2  C   UNL     1       1.776  -1.840   0.000  1.00  0.00     0.199 C 
ATOM      3  C   UNL     1       2.723  -0.677   0.000  1.00  0.00     0.063 A 
ATOM      4  C   UNL     1       4.204  -0.915   0.000  1.00  0.00     0.019 A 
ATOM      5  C   UNL     1       5.150   0.249   0.000  1.00  0.00     0.047 A 
ATOM      6  C   UNL     1       4.616   1.650   0.000  1.00  0.00     0.119 A 
ATOM      7  C   UNL     1       3.135   1.888   0.000  1.00  0.00     0.093 A 
ATOM      8  C   UNL     1       2.188   0.725   0.000  1.00  0.00     0.135 A 
ATOM      9  O   UNL     1       0.707   0.963   0.000  1.00  0.00    -0.482 OA
ATOM     10  C   UNL     1      -0.239  -0.201   0.000  1.00  0.00     0.241 C 
ATOM     11  C   UNL     1      -1.720   0.037   0.000  1.00  0.00     0.005 A 
ATOM     12  C   UNL     1      -2.255   1.439   0.000  1.00  0.00     0.058 A 
ATOM     13  C   UNL     1      -3.736   1.677   0.000  1.00  0.00     0.157 A 
ATOM     14  C   UNL     1      -4.682   0.513   0.000  1.00  0.00     0.157 A 
ATOM     15  C   UNL     1      -4.148  -0.888   0.000  1.00  0.00     0.056 A 
ATOM     16  C   UNL     1      -2.667  -1.126   0.000  1.00  0.00    -0.011 A 
ATOM     17  C   UNL     1      -2.133  -2.528   0.000  1.00  0.00     0.197 C 
ATOM     18  O   UNL     1      -0.652  -2.766   0.000  1.00  0.00    -0.361 OA
ATOM     19  C   UNL     1       0.295  -1.602   0.000  1.00  0.00     0.235 C 
ENDROOT
BRANCH   6  20
ATOM     20  O   UNL     1       5.562   2.814   0.000  1.00  0.00    -0.508 OA
ATOM     21  H   UNL     1       0.000   0.000   0.000  1.00  0.00     0.293 HD
ENDBRANCH   6  20
BRANCH  13  22
ATOM     22  O   UNL     1      -4.270   3.078   0.000  1.00  0.00    -0.504 OA
ATOM     23  H   UNL     1       0.000   0.000   0.000  1.00  0.00     0.293 HD
ENDBRANCH  13  22
BRANCH  14  24
ATOM     24  O   UNL     1      -6.163   0.751   0.000  1.00  0.00    -0.504 OA
ATOM     25  H   UNL     1       0.000   0.000   0.000  1.00  0.00     0.293 HD
ENDBRANCH  14  24
TORSDOF 3
