REMARK SMILES COc1cc(O)cc2c1C(=O)[C@@H]1OCc3cc(O)c(O)cc3[C@H]1O2
REMARK SMILES IDX 3 1 4 2 5 3 7 4 8 5 9 6 10 7 11 8 12 9 13 10 14 11 15 12
REMARK SMILES IDX 16 13 17 14 19 15 21 16 22 17 23 18 24 19 2 20 1 21 6 22
REMARK SMILES IDX 20 24 18 26
REMARK H PARENT 6 23 20 25 18 27
ROOT
ATOM      1  C   UNL     1      -3.800  -0.325   0.000  1.00  0.00     0.137 A 
ATOM      2  C   UNL     1      -4.623   0.929   0.000  1.00  0.00     0.093 A 
ATOM      3  C   UNL     1      -3.948   2.268   0.000  1.00  0.00     0.123 A 
ATOM      4  C   UNL     1      -2.451   2.354   0.000  1.00  0.00     0.093 A 
ATOM      5  C   UNL     1      -1.628   1.100   0.000  1.00  0.00     0.138 A 
ATOM      6  C   UNL     1      -2.303  -0.240   0.000  1.00  0.00     0.105 A 
ATOM      7  C   UNL     1      -1.480  -1.494   0.000  1.00  0.00     0.203 C 
ATOM      8  O   UNL     1      -2.155  -2.834   0.000  1.00  0.00    -0.291 OA
ATOM      9  C   UNL     1       0.018  -1.409   0.000  1.00  0.00     0.235 C 
ATOM     10  O   UNL     1       0.841  -2.663   0.000  1.00  0.00    -0.361 OA
ATOM     11  C   UNL     1       2.338  -2.577   0.000  1.00  0.00     0.197 C 
ATOM     12  C   UNL     1       3.013  -1.238   0.000  1.00  0.00    -0.011 A 
ATOM     13  C   UNL     1       4.511  -1.152   0.000  1.00  0.00     0.056 A 
ATOM     14  C   UNL     1       5.185   0.188   0.000  1.00  0.00     0.157 A 
ATOM     15  C   UNL     1       4.362   1.442   0.000  1.00  0.00     0.157 A 
ATOM     16  C   UNL     1       2.865   1.356   0.000  1.00  0.00     0.058 A 
ATOM     17  C   UNL     1       2.190   0.017   0.000  1.00  0.00     0.005 A 
ATOM     18  C   UNL     1       0.693  -0.069   0.000  1.00  0.00     0.241 C 
ATOM     19  O   UNL     1      -0.130   1.185   0.000  1.00  0.00    -0.481 OA
ENDROOT
BRANCH   1  20
ATOM     20  O   UNL     1      -4.475  -1.665   0.000  1.00  0.00    -0.496 OA
ATOM     21  C   UNL     1      -5.972  -1.751   0.000  1.00  0.00     0.278 C 
ENDBRANCH   1  20
BRANCH   3  22
ATOM     22  O   UNL     1      -4.771   3.523   0.000  1.00  0.00    -0.508 OA
ATOM     23  H   UNL     1       0.000   0.000   0.000  1.00  0.00     0.293 HD
ENDBRANCH   3  22
BRANCH  15  24
ATOM     24  O   UNL     1       5.037   2.781   0.000  1.00  0.00    -0.504 OA
ATOM     25  H   UNL     1       0.000   0.000   0.000  1.00  0.00     0.293 HD
ENDBRANCH  15  24
BRANCH  14  26
ATOM     26  O   UNL     1       6.683   0.273   0.000  1.00  0.00    -0.504 OA
ATOM     27  H   UNL     1       0.000   0.000   0.000  1.00  0.00     0.293 HD
ENDBRANCH  14  26
TORSDOF 4
