REMARK SMILES COc1ccc(-c2oc3cc(OC)c(OC)c(O)c3c(=O)c2OC)c(OC)c1OC
REMARK SMILES IDX 7 1 22 2 20 3 21 4 19 5 17 6 14 7 11 8 10 9 9 10 8 11 6 12
REMARK SMILES IDX 3 13 4 14 28 15 5 16 25 17 2 18 1 19 29 20 30 21 26 22 27 23
REMARK SMILES IDX 23 24 24 25 18 26 12 28 13 29 15 30 16 31
REMARK H PARENT 18 27
ROOT
ATOM      1  C   UNL     1      -0.518  -0.524   0.000  1.00  0.00     0.184 A 
ATOM      2  C   UNL     1       0.127  -1.878   0.000  1.00  0.00     0.211 A 
ATOM      3  C   UNL     1       1.622  -1.996   0.000  1.00  0.00     0.239 A 
ATOM      4  O   UNL     1       2.267  -3.351   0.000  1.00  0.00    -0.285 OA
ATOM      5  C   UNL     1       2.473  -0.761   0.000  1.00  0.00     0.115 A 
ATOM      6  C   UNL     1       3.968  -0.879   0.000  1.00  0.00     0.177 A 
ATOM      7  C   UNL     1       4.818   0.356   0.000  1.00  0.00     0.204 A 
ATOM      8  C   UNL     1       4.173   1.710   0.000  1.00  0.00     0.168 A 
ATOM      9  C   UNL     1       2.678   1.829   0.000  1.00  0.00     0.098 A 
ATOM     10  C   UNL     1       1.828   0.593   0.000  1.00  0.00     0.146 A 
ATOM     11  O   UNL     1       0.332   0.712   0.000  1.00  0.00    -0.451 OA
ENDROOT
BRANCH   1  12
ATOM     12  C   UNL     1      -2.013  -0.405   0.000  1.00  0.00     0.067 A 
ATOM     13  C   UNL     1      -5.004  -0.168   0.000  1.00  0.00     0.164 A 
ATOM     14  C   UNL     1      -4.359  -1.522   0.000  1.00  0.00     0.051 A 
ATOM     15  C   UNL     1      -4.154   1.068   0.000  1.00  0.00     0.204 A 
ATOM     16  C   UNL     1      -2.864  -1.641   0.000  1.00  0.00     0.020 A 
ATOM     17  C   UNL     1      -2.658   0.949   0.000  1.00  0.00     0.175 A 
BRANCH  13  18
ATOM     18  O   UNL     1      -6.499  -0.049   0.000  1.00  0.00    -0.493 OA
ATOM     19  C   UNL     1      -7.350  -1.285   0.000  1.00  0.00     0.278 C 
ENDBRANCH  13  18
BRANCH  15  20
ATOM     20  O   UNL     1      -4.798   2.422   0.000  1.00  0.00    -0.490 OA
ATOM     21  C   UNL     1      -6.294   2.541   0.000  1.00  0.00     0.278 C 
ENDBRANCH  15  20
BRANCH  17  22
ATOM     22  O   UNL     1      -1.808   2.185   0.000  1.00  0.00    -0.492 OA
ATOM     23  C   UNL     1      -2.453   3.539   0.000  1.00  0.00     0.278 C 
ENDBRANCH  17  22
ENDBRANCH   1  12
BRANCH   2  24
ATOM     24  O   UNL     1      -0.724  -3.114   0.000  1.00  0.00    -0.490 OA
ATOM     25  C   UNL     1      -2.219  -2.995   0.000  1.00  0.00     0.278 C 
ENDBRANCH   2  24
BRANCH   6  26
ATOM     26  O   UNL     1       4.613  -2.234   0.000  1.00  0.00    -0.504 OA
ATOM     27  H   UNL     1       0.000   0.000   0.000  1.00  0.00     0.293 HD
ENDBRANCH   6  26
BRANCH   8  28
ATOM     28  O   UNL     1       5.024   2.946   0.000  1.00  0.00    -0.493 OA
ATOM     29  C   UNL     1       6.519   2.828   0.000  1.00  0.00     0.278 C 
ENDBRANCH   8  28
BRANCH   7  30
ATOM     30  O   UNL     1       6.314   0.238   0.000  1.00  0.00    -0.490 OA
ATOM     31  C   UNL     1       6.958  -1.117   0.000  1.00  0.00     0.278 C 
ENDBRANCH   7  30
TORSDOF 8
