REMARK SMILES O=C(O)Cc1ccccc1O
REMARK SMILES IDX 4 1 2 2 1 3 3 4 5 6 6 7 10 8 7 9 9 10 8 11 11 12
REMARK H PARENT 3 5 11 13
ROOT
ATOM      1  C   UNL     1      -1.272  -0.829   0.000  1.00  0.00     0.161 C 
ENDROOT
BRANCH   1   2
ATOM      2  C   UNL     1      -2.488   0.050   0.000  1.00  0.00     0.307 C 
ATOM      3  O   UNL     1      -2.334   1.542   0.000  1.00  0.00    -0.252 OA
BRANCH   2   4
ATOM      4  O   UNL     1      -3.857  -0.563   0.000  1.00  0.00    -0.481 OA
ATOM      5  H   UNL     1       0.000   0.000   0.000  1.00  0.00     0.296 HD
ENDBRANCH   2   4
ENDBRANCH   1   2
BRANCH   1   6
ATOM      6  C   UNL     1       0.097  -0.216   0.000  1.00  0.00     0.005 A 
ATOM      7  C   UNL     1       0.250   1.277   0.000  1.00  0.00     0.008 A 
ATOM      8  C   UNL     1       1.312  -1.095   0.000  1.00  0.00     0.119 A 
ATOM      9  C   UNL     1       1.619   1.890   0.000  1.00  0.00     0.001 A 
ATOM     10  C   UNL     1       2.681  -0.481   0.000  1.00  0.00     0.046 A 
ATOM     11  C   UNL     1       2.834   1.011   0.000  1.00  0.00     0.004 A 
BRANCH   8  12
ATOM     12  O   UNL     1       1.159  -2.587   0.000  1.00  0.00    -0.508 OA
ATOM     13  H   UNL     1       0.000   0.000   0.000  1.00  0.00     0.293 HD
ENDBRANCH   8  12
ENDBRANCH   1   6
TORSDOF 4
