REMARK SMILES COc1cc(O)c2c(=O)c(O)c(-c3ccc(O)cc3)oc2c1
REMARK SMILES IDX 3 1 4 2 5 3 7 4 8 5 9 6 10 7 12 8 20 9 21 10 22 11 2 12 1 13
REMARK SMILES IDX 6 14 13 16 14 17 19 18 15 19 18 20 16 21 17 22 11 24
REMARK H PARENT 6 15 17 23 11 25
ROOT
ATOM      1  C   UNL     1      -3.890  -1.412   0.000  1.00  0.00     0.126 A 
ATOM      2  C   UNL     1      -4.332   0.021   0.000  1.00  0.00     0.093 A 
ATOM      3  C   UNL     1      -3.311   1.121   0.000  1.00  0.00     0.134 A 
ATOM      4  C   UNL     1      -1.849   0.786   0.000  1.00  0.00     0.111 A 
ATOM      5  C   UNL     1      -0.828   1.885   0.000  1.00  0.00     0.238 A 
ATOM      6  O   UNL     1      -1.269   3.319   0.000  1.00  0.00    -0.285 OA
ATOM      7  C   UNL     1       0.634   1.551   0.000  1.00  0.00     0.208 A 
ATOM      8  C   UNL     1       1.076   0.117   0.000  1.00  0.00     0.180 A 
ATOM      9  O   UNL     1       0.055  -0.982   0.000  1.00  0.00    -0.452 OA
ATOM     10  C   UNL     1      -1.407  -0.647   0.000  1.00  0.00     0.146 A 
ATOM     11  C   UNL     1      -2.428  -1.747   0.000  1.00  0.00     0.094 A 
ENDROOT
BRANCH   1  12
ATOM     12  O   UNL     1      -4.911  -2.511   0.000  1.00  0.00    -0.496 OA
ATOM     13  C   UNL     1      -6.373  -2.177   0.000  1.00  0.00     0.278 C 
ENDBRANCH   1  12
BRANCH   3  14
ATOM     14  O   UNL     1      -3.752   2.554   0.000  1.00  0.00    -0.507 OA
ATOM     15  H   UNL     1       0.000   0.000   0.000  1.00  0.00     0.293 HD
ENDBRANCH   3  14
BRANCH   8  16
ATOM     16  C   UNL     1       2.538  -0.217   0.000  1.00  0.00     0.021 A 
ATOM     17  C   UNL     1       2.980  -1.651   0.000  1.00  0.00     0.016 A 
ATOM     18  C   UNL     1       3.559   0.882   0.000  1.00  0.00     0.016 A 
ATOM     19  C   UNL     1       4.442  -1.985   0.000  1.00  0.00     0.047 A 
ATOM     20  C   UNL     1       5.021   0.548   0.000  1.00  0.00     0.047 A 
ATOM     21  C   UNL     1       5.463  -0.886   0.000  1.00  0.00     0.115 A 
BRANCH  21  22
ATOM     22  O   UNL     1       6.925  -1.220   0.000  1.00  0.00    -0.508 OA
ATOM     23  H   UNL     1       0.000   0.000   0.000  1.00  0.00     0.293 HD
ENDBRANCH  21  22
ENDBRANCH   8  16
BRANCH   7  24
ATOM     24  O   UNL     1       1.655   2.650   0.000  1.00  0.00    -0.502 OA
ATOM     25  H   UNL     1       0.000   0.000   0.000  1.00  0.00     0.293 HD
ENDBRANCH   7  24
TORSDOF 5
