REMARK SMILES O=C1c2ccc(O)cc2O[C@H]2c3ccc(O)c(O)c3CO[C@H]12
REMARK SMILES IDX 1 1 2 2 3 3 4 4 5 5 6 6 8 7 9 8 10 9 11 10 12 11 13 12 14 13
REMARK SMILES IDX 15 14 17 15 19 16 20 17 21 18 22 19 7 20 18 22 16 24
REMARK H PARENT 7 21 18 23 16 25
ROOT
ATOM      1  O   UNL     1       1.998  -3.251   0.000  1.00  0.00    -0.291 OA
ATOM      2  C   UNL     1       1.623  -1.799   0.000  1.00  0.00     0.199 C 
ATOM      3  C   UNL     1       2.693  -0.748   0.000  1.00  0.00     0.063 A 
ATOM      4  C   UNL     1       4.139  -1.149   0.000  1.00  0.00     0.019 A 
ATOM      5  C   UNL     1       5.209  -0.098   0.000  1.00  0.00     0.047 A 
ATOM      6  C   UNL     1       4.834   1.354   0.000  1.00  0.00     0.119 A 
ATOM      7  C   UNL     1       3.389   1.755   0.000  1.00  0.00     0.093 A 
ATOM      8  C   UNL     1       2.318   0.704   0.000  1.00  0.00     0.135 A 
ATOM      9  O   UNL     1       0.873   1.106   0.000  1.00  0.00    -0.482 OA
ATOM     10  C   UNL     1      -0.197   0.055   0.000  1.00  0.00     0.241 C 
ATOM     11  C   UNL     1      -1.642   0.456   0.000  1.00  0.00     0.005 A 
ATOM     12  C   UNL     1      -2.018   1.908   0.000  1.00  0.00     0.012 A 
ATOM     13  C   UNL     1      -3.463   2.310   0.000  1.00  0.00     0.050 A 
ATOM     14  C   UNL     1      -4.533   1.259   0.000  1.00  0.00     0.157 A 
ATOM     15  C   UNL     1      -4.158  -0.194   0.000  1.00  0.00     0.163 A 
ATOM     16  C   UNL     1      -2.713  -0.595   0.000  1.00  0.00     0.030 A 
ATOM     17  C   UNL     1      -2.337  -2.047   0.000  1.00  0.00     0.201 C 
ATOM     18  O   UNL     1      -0.892  -2.449   0.000  1.00  0.00    -0.361 OA
ATOM     19  C   UNL     1       0.178  -1.398   0.000  1.00  0.00     0.235 C 
ENDROOT
BRANCH   6  20
ATOM     20  O   UNL     1       5.904   2.405   0.000  1.00  0.00    -0.508 OA
ATOM     21  H   UNL     1       0.000   0.000   0.000  1.00  0.00     0.293 HD
ENDBRANCH   6  20
BRANCH  15  22
ATOM     22  O   UNL     1      -5.228  -1.245   0.000  1.00  0.00    -0.504 OA
ATOM     23  H   UNL     1       0.000   0.000   0.000  1.00  0.00     0.293 HD
ENDBRANCH  15  22
BRANCH  14  24
ATOM     24  O   UNL     1      -5.978   1.660   0.000  1.00  0.00    -0.504 OA
ATOM     25  H   UNL     1       0.000   0.000   0.000  1.00  0.00     0.293 HD
ENDBRANCH  14  24
TORSDOF 3
