REMARK SMILES COc1c2ccccc2nc2oc(C(C)(C)O)cc12
REMARK SMILES IDX 3 1 4 2 5 3 6 4 7 5 8 6 9 7 10 8 11 9 19 10 18 11 13 12
REMARK SMILES IDX 12 13 2 14 1 15 14 16 15 17 16 18 17 19
REMARK H PARENT 17 20
ROOT
ATOM      1  C   UNL     1       1.032  -1.130   0.000  1.00  0.00     0.141 A 
ATOM      2  C   UNL     1       2.320  -0.362   0.000  1.00  0.00     0.043 A 
ATOM      3  C   UNL     1       3.629  -1.094   0.000  1.00  0.00     0.014 A 
ATOM      4  C   UNL     1       4.918  -0.326   0.000  1.00  0.00     0.001 A 
ATOM      5  C   UNL     1       4.897   1.174   0.000  1.00  0.00     0.002 A 
ATOM      6  C   UNL     1       3.587   1.906   0.000  1.00  0.00     0.029 A 
ATOM      7  C   UNL     1       2.299   1.137   0.000  1.00  0.00     0.078 A 
ATOM      8  N   UNL     1       0.990   1.869   0.000  1.00  0.00    -0.212 NA
ATOM      9  C   UNL     1      -0.299   1.101   0.000  1.00  0.00     0.230 A 
ATOM     10  C   UNL     1      -0.278  -0.399   0.000  1.00  0.00     0.083 A 
ATOM     11  C   UNL     1      -1.698  -0.882   0.000  1.00  0.00     0.063 A 
ATOM     12  C   UNL     1      -2.596   0.319   0.000  1.00  0.00     0.138 A 
ATOM     13  O   UNL     1      -1.732   1.545   0.000  1.00  0.00    -0.440 OA
ENDROOT
BRANCH   1  14
ATOM     14  O   UNL     1       1.052  -2.630   0.000  1.00  0.00    -0.495 OA
ATOM     15  C   UNL     1      -0.236  -3.398   0.000  1.00  0.00     0.278 C 
ENDBRANCH   1  14
BRANCH  12  16
ATOM     16  C   UNL     1      -4.096   0.298   0.000  1.00  0.00     0.117 C 
ATOM     17  C   UNL     1      -4.075  -1.202   0.000  1.00  0.00     0.050 C 
ATOM     18  C   UNL     1      -4.117   1.798   0.000  1.00  0.00     0.050 C 
BRANCH  16  19
ATOM     19  O   UNL     1      -5.596   0.277   0.000  1.00  0.00    -0.382 OA
ATOM     20  H   UNL     1       0.000   0.000   0.000  1.00  0.00     0.211 HD
ENDBRANCH  16  19
ENDBRANCH  12  16
TORSDOF 3
