REMARK SMILES COc1ccc(-c2cc(=O)c3c(OC)c4c(c(OC)c3o2)OC(C)(C)C=C4)cc1OC
REMARK SMILES IDX 7 1 8 2 9 3 10 4 11 5 12 6 15 7 16 8 22 9 23 10 24 11 25 12
REMARK SMILES IDX 26 13 27 14 17 15 20 16 21 17 6 18 3 19 4 20 29 21 5 22
REMARK SMILES IDX 28 23 2 24 1 25 30 26 31 27 18 28 19 29 13 30 14 31
REMARK H PARENT
ROOT
ATOM      1  C   UNL     1      -1.683   0.844   0.000  1.00  0.00     0.138 A 
ATOM      2  C   UNL     1      -1.199   2.264   0.000  1.00  0.00     0.100 A 
ATOM      3  C   UNL     1       0.273   2.554   0.000  1.00  0.00     0.197 A 
ATOM      4  O   UNL     1       0.758   3.973   0.000  1.00  0.00    -0.289 OA
ATOM      5  C   UNL     1       1.260   1.424   0.000  1.00  0.00     0.111 A 
ATOM      6  C   UNL     1       2.732   1.714   0.000  1.00  0.00     0.145 A 
ATOM      7  C   UNL     1       3.719   0.584   0.000  1.00  0.00     0.063 A 
ATOM      8  C   UNL     1       3.234  -0.835   0.000  1.00  0.00     0.177 A 
ATOM      9  O   UNL     1       4.221  -1.965   0.000  1.00  0.00    -0.479 OA
ATOM     10  C   UNL     1       5.692  -1.675   0.000  1.00  0.00     0.122 C 
ATOM     11  C   UNL     1       7.174  -1.906   0.000  1.00  0.00     0.061 C 
ATOM     12  C   UNL     1       5.722  -3.175   0.000  1.00  0.00     0.061 C 
ATOM     13  C   UNL     1       6.177  -0.256   0.000  1.00  0.00     0.021 C 
ATOM     14  C   UNL     1       5.190   0.874   0.000  1.00  0.00     0.016 C 
ATOM     15  C   UNL     1       1.762  -1.125   0.000  1.00  0.00     0.205 A 
ATOM     16  C   UNL     1       0.775   0.004   0.000  1.00  0.00     0.188 A 
ATOM     17  O   UNL     1      -0.697  -0.285   0.000  1.00  0.00    -0.452 OA
ENDROOT
BRANCH   1  18
ATOM     18  C   UNL     1      -3.155   0.554   0.000  1.00  0.00     0.021 A 
ATOM     19  C   UNL     1      -6.099  -0.025   0.000  1.00  0.00     0.160 A 
ATOM     20  C   UNL     1      -5.614   1.394   0.000  1.00  0.00     0.051 A 
ATOM     21  C   UNL     1      -5.112  -1.155   0.000  1.00  0.00     0.161 A 
ATOM     22  C   UNL     1      -4.142   1.684   0.000  1.00  0.00     0.016 A 
ATOM     23  C   UNL     1      -3.640  -0.865   0.000  1.00  0.00     0.062 A 
BRANCH  19  24
ATOM     24  O   UNL     1      -7.571  -0.315   0.000  1.00  0.00    -0.493 OA
ATOM     25  C   UNL     1      -8.557   0.815   0.000  1.00  0.00     0.278 C 
ENDBRANCH  19  24
BRANCH  21  26
ATOM     26  O   UNL     1      -5.597  -2.574   0.000  1.00  0.00    -0.493 OA
ATOM     27  C   UNL     1      -4.610  -3.704   0.000  1.00  0.00     0.278 C 
ENDBRANCH  21  26
ENDBRANCH   1  18
BRANCH  15  28
ATOM     28  O   UNL     1       1.277  -2.545   0.000  1.00  0.00    -0.490 OA
ATOM     29  C   UNL     1      -0.195  -2.834   0.000  1.00  0.00     0.278 C 
ENDBRANCH  15  28
BRANCH   6  30
ATOM     30  O   UNL     1       3.216   3.133   0.000  1.00  0.00    -0.495 OA
ATOM     31  C   UNL     1       4.688   3.423   0.000  1.00  0.00     0.278 C 
ENDBRANCH   6  30
TORSDOF 5
