REMARK SMILES O=c1cc(-c2ccccc2)oc2cc(O)cc(O)c12
REMARK SMILES IDX 1 1 2 2 3 3 4 4 11 5 12 6 13 7 14 8 16 9 17 10 19 11 5 12
REMARK SMILES IDX 6 13 10 14 7 15 9 16 8 17 18 18 15 20
REMARK H PARENT 18 19 15 21
ROOT
ATOM      1  O   UNL     1       1.357  -3.201   0.000  1.00  0.00    -0.289 OA
ATOM      2  C   UNL     1       0.826  -1.798   0.000  1.00  0.00     0.197 A 
ATOM      3  C   UNL     1      -0.654  -1.556   0.000  1.00  0.00     0.100 A 
ATOM      4  C   UNL     1      -1.185  -0.153   0.000  1.00  0.00     0.138 A 
ATOM      5  O   UNL     1      -0.235   1.008   0.000  1.00  0.00    -0.456 OA
ATOM      6  C   UNL     1       1.245   0.766   0.000  1.00  0.00     0.146 A 
ATOM      7  C   UNL     1       2.195   1.927   0.000  1.00  0.00     0.094 A 
ATOM      8  C   UNL     1       3.675   1.685   0.000  1.00  0.00     0.123 A 
ATOM      9  C   UNL     1       4.206   0.282   0.000  1.00  0.00     0.093 A 
ATOM     10  C   UNL     1       3.256  -0.878   0.000  1.00  0.00     0.134 A 
ATOM     11  C   UNL     1       1.776  -0.637   0.000  1.00  0.00     0.107 A 
ENDROOT
BRANCH   4  12
ATOM     12  C   UNL     1      -2.665   0.089   0.000  1.00  0.00     0.017 A 
ATOM     13  C   UNL     1      -3.196   1.492   0.000  1.00  0.00     0.012 A 
ATOM     14  C   UNL     1      -3.615  -1.072   0.000  1.00  0.00     0.012 A 
ATOM     15  C   UNL     1      -4.676   1.734   0.000  1.00  0.00     0.001 A 
ATOM     16  C   UNL     1      -5.095  -0.830   0.000  1.00  0.00     0.001 A 
ATOM     17  C   UNL     1      -5.626   0.573   0.000  1.00  0.00     0.000 A 
ENDBRANCH   4  12
BRANCH  10  18
ATOM     18  O   UNL     1       3.787  -2.281   0.000  1.00  0.00    -0.507 OA
ATOM     19  H   UNL     1       0.000   0.000   0.000  1.00  0.00     0.293 HD
ENDBRANCH  10  18
BRANCH   8  20
ATOM     20  O   UNL     1       4.625   2.847   0.000  1.00  0.00    -0.508 OA
ATOM     21  H   UNL     1       0.000   0.000   0.000  1.00  0.00     0.293 HD
ENDBRANCH   8  20
TORSDOF 3
