REMARK SMILES C=CC[C@]1(OC)C=C2C(=CC1=O)O[C@H](c1ccc3c(c1)OCO3)[C@H]2C
REMARK SMILES IDX 4 1 7 2 8 3 9 4 10 5 11 6 12 7 13 8 14 9 24 10 25 11 3 12
REMARK SMILES IDX 2 13 1 14 5 15 6 16 15 17 16 18 20 19 17 20 19 21 18 22
REMARK SMILES IDX 21 23 23 24 22 25
REMARK H PARENT
ROOT
ATOM      1  C   UNL     1       3.838   0.039   0.000  1.00  0.00     0.152 C 
ATOM      2  C   UNL     1       2.663  -0.894   0.000  1.00  0.00     0.024 C 
ATOM      3  C   UNL     1       1.268  -0.344   0.000  1.00  0.00     0.000 C 
ATOM      4  C   UNL     1       1.047   1.140   0.000  1.00  0.00     0.127 C 
ATOM      5  C   UNL     1       2.221   2.073   0.000  1.00  0.00     0.097 C 
ATOM      6  C   UNL     1       3.617   1.523   0.000  1.00  0.00     0.195 C 
ATOM      7  O   UNL     1       4.791   2.456   0.000  1.00  0.00    -0.291 OA
ATOM      8  O   UNL     1      -0.432   1.388   0.000  1.00  0.00    -0.485 OA
ATOM      9  C   UNL     1      -1.125   0.058   0.000  1.00  0.00     0.211 C 
ATOM     10  C   UNL     1      -0.075  -1.012   0.000  1.00  0.00     0.065 C 
ATOM     11  C   UNL     1      -0.323  -2.491   0.000  1.00  0.00     0.017 C 
ENDROOT
BRANCH   1  12
ATOM     12  C   UNL     1       5.261   0.514   0.000  1.00  0.00     0.075 C 
BRANCH  12  13
ATOM     13  C   UNL     1       6.383  -0.480   0.000  1.00  0.00    -0.031 C 
ATOM     14  C   UNL     1       7.806  -0.005   0.000  1.00  0.00     0.004 C 
ENDBRANCH  12  13
ENDBRANCH   1  12
BRANCH   1  15
ATOM     15  O   UNL     1       4.553  -1.280   0.000  1.00  0.00    -0.366 OA
ATOM     16  C   UNL     1       3.768  -2.558   0.000  1.00  0.00     0.196 C 
ENDBRANCH   1  15
BRANCH   9  17
ATOM     17  C   UNL     1      -2.609  -0.163   0.000  1.00  0.00    -0.003 A 
ATOM     18  C   UNL     1      -3.160  -1.558   0.000  1.00  0.00     0.011 A 
ATOM     19  C   UNL     1      -3.542   1.012   0.000  1.00  0.00     0.058 A 
ATOM     20  C   UNL     1      -4.643  -1.779   0.000  1.00  0.00     0.051 A 
ATOM     21  C   UNL     1      -5.026   0.791   0.000  1.00  0.00     0.166 A 
ATOM     22  C   UNL     1      -5.576  -0.605   0.000  1.00  0.00     0.165 A 
ATOM     23  O   UNL     1      -6.183   1.746   0.000  1.00  0.00    -0.454 OA
ATOM     24  O   UNL     1      -7.074  -0.512   0.000  1.00  0.00    -0.454 OA
ATOM     25  C   UNL     1      -7.448   0.940   0.000  1.00  0.00     0.468 C 
ENDBRANCH   9  17
TORSDOF 4
