REMARK SMILES COc1ccc(-c2cc(=O)c3c(O)c(OC)c(OC)cc3o2)cc1OC
REMARK SMILES IDX 7 1 8 2 9 3 10 4 11 5 12 6 14 7 17 8 20 9 21 10 22 11 6 12
REMARK SMILES IDX 3 13 4 14 24 15 5 16 23 17 2 18 1 19 25 20 26 21 13 22 18 24
REMARK SMILES IDX 19 25 15 26 16 27
REMARK H PARENT 13 23
ROOT
ATOM      1  C   UNL     1      -0.870  -0.079   0.000  1.00  0.00     0.138 A 
ATOM      2  C   UNL     1      -0.392  -1.501   0.000  1.00  0.00     0.100 A 
ATOM      3  C   UNL     1       1.078  -1.798   0.000  1.00  0.00     0.197 A 
ATOM      4  O   UNL     1       1.556  -3.220   0.000  1.00  0.00    -0.289 OA
ATOM      5  C   UNL     1       2.071  -0.674   0.000  1.00  0.00     0.111 A 
ATOM      6  C   UNL     1       3.541  -0.971   0.000  1.00  0.00     0.176 A 
ATOM      7  C   UNL     1       4.534   0.153   0.000  1.00  0.00     0.204 A 
ATOM      8  C   UNL     1       4.056   1.575   0.000  1.00  0.00     0.168 A 
ATOM      9  C   UNL     1       2.586   1.873   0.000  1.00  0.00     0.098 A 
ATOM     10  C   UNL     1       1.593   0.748   0.000  1.00  0.00     0.146 A 
ATOM     11  O   UNL     1       0.123   1.046   0.000  1.00  0.00    -0.456 OA
ENDROOT
BRANCH   1  12
ATOM     12  C   UNL     1      -2.340   0.218   0.000  1.00  0.00     0.021 A 
ATOM     13  C   UNL     1      -5.280   0.813   0.000  1.00  0.00     0.160 A 
ATOM     14  C   UNL     1      -4.287   1.938   0.000  1.00  0.00     0.051 A 
ATOM     15  C   UNL     1      -4.803  -0.609   0.000  1.00  0.00     0.161 A 
ATOM     16  C   UNL     1      -2.817   1.640   0.000  1.00  0.00     0.016 A 
ATOM     17  C   UNL     1      -3.332  -0.906   0.000  1.00  0.00     0.062 A 
BRANCH  13  18
ATOM     18  O   UNL     1      -6.750   1.111   0.000  1.00  0.00    -0.493 OA
ATOM     19  C   UNL     1      -7.228   2.533   0.000  1.00  0.00     0.278 C 
ENDBRANCH  13  18
BRANCH  15  20
ATOM     20  O   UNL     1      -5.795  -1.733   0.000  1.00  0.00    -0.493 OA
ATOM     21  C   UNL     1      -5.318  -3.155   0.000  1.00  0.00     0.278 C 
ENDBRANCH  15  20
ENDBRANCH   1  12
BRANCH   6  22
ATOM     22  O   UNL     1       4.019  -2.393   0.000  1.00  0.00    -0.504 OA
ATOM     23  H   UNL     1       0.000   0.000   0.000  1.00  0.00     0.293 HD
ENDBRANCH   6  22
BRANCH   8  24
ATOM     24  O   UNL     1       5.049   2.700   0.000  1.00  0.00    -0.493 OA
ATOM     25  C   UNL     1       6.519   2.402   0.000  1.00  0.00     0.278 C 
ENDBRANCH   8  24
BRANCH   7  26
ATOM     26  O   UNL     1       6.004  -0.144   0.000  1.00  0.00    -0.490 OA
ATOM     27  C   UNL     1       6.482  -1.566   0.000  1.00  0.00     0.278 C 
ENDBRANCH   7  26
TORSDOF 6
