REMARK SMILES CCC1[C@H]2CCN(C)[C@H]1c1c([nH]c3ccccc13)[C@@H]2CO
REMARK SMILES IDX 3 1 4 2 5 3 6 4 7 5 8 6 9 7 10 8 11 9 12 10 13 11 14 12
REMARK SMILES IDX 15 13 16 14 17 15 18 16 19 17 2 19 1 20 20 21 21 22
REMARK H PARENT 12 18 21 23
ROOT
ATOM      1  C   UNL     1      -1.939   0.289   0.000  1.00  0.00     0.014 C 
ATOM      2  C   UNL     1      -2.034  -1.207   0.000  1.00  0.00     0.006 C 
ATOM      3  C   UNL     1      -3.283  -0.377   0.000  1.00  0.00     0.020 C 
ATOM      4  C   UNL     1      -3.188   1.120   0.000  1.00  0.00     0.085 C 
ATOM      5  N   UNL     1      -1.844   1.786   0.000  1.00  0.00    -0.299 NA
ATOM      6  C   UNL     1      -1.749   3.284   0.000  1.00  0.00     0.106 C 
ATOM      7  C   UNL     1      -0.595   0.956   0.000  1.00  0.00     0.092 C 
ATOM      8  C   UNL     1       0.654   0.125   0.000  1.00  0.00    -0.002 A 
ATOM      9  C   UNL     1       0.559  -1.372   0.000  1.00  0.00     0.026 A 
ATOM     10  N   UNL     1       1.953  -1.925   0.000  1.00  0.00    -0.358 N 
ATOM     11  C   UNL     1       2.910  -0.769   0.000  1.00  0.00     0.046 A 
ATOM     12  C   UNL     1       4.409  -0.707   0.000  1.00  0.00     0.026 A 
ATOM     13  C   UNL     1       5.104   0.622   0.000  1.00  0.00     0.002 A 
ATOM     14  C   UNL     1       4.301   1.889   0.000  1.00  0.00     0.001 A 
ATOM     15  C   UNL     1       2.803   1.826   0.000  1.00  0.00     0.011 A 
ATOM     16  C   UNL     1       2.107   0.497   0.000  1.00  0.00     0.004 A 
ATOM     17  C   UNL     1      -0.785  -2.038   0.000  1.00  0.00     0.065 C 
ATOM     18  H   UNL     1       0.000   0.000   0.000  1.00  0.00     0.166 HD
ENDROOT
BRANCH   1  19
ATOM     19  C   UNL     1      -3.188   1.120   0.000  1.00  0.00     0.002 C 
ATOM     20  C   UNL     1      -3.093   2.617   0.000  1.00  0.00     0.004 C 
ENDBRANCH   1  19
BRANCH  17  21
ATOM     21  C   UNL     1      -0.880  -3.535   0.000  1.00  0.00     0.166 C 
BRANCH  21  22
ATOM     22  O   UNL     1      -2.224  -4.201   0.000  1.00  0.00    -0.396 OA
ATOM     23  H   UNL     1       0.000   0.000   0.000  1.00  0.00     0.210 HD
ENDBRANCH  21  22
ENDBRANCH  17  21
TORSDOF 3
