REMARK SMILES C=C(C)[C@@H]1CC[C@]2(C)[C@H](CC[C@@H]3[C@@H]([C@]4(C)CC[C@@H](C(C)(C)O)O4)CC[C@]32C)[C@@]1(C)CCC(=O)O
REMARK SMILES IDX 4 1 5 2 6 3 7 4 8 5 9 6 10 7 11 8 12 9 13 10 24 11 25 12
REMARK SMILES IDX 26 13 27 14 28 15 29 16 2 17 1 18 3 19 30 20 31 21 32 22
REMARK SMILES IDX 33 23 34 24 14 26 16 27 23 28 17 29 18 30 15 31 19 32 20 33
REMARK SMILES IDX 21 34 22 35
REMARK H PARENT 34 25 22 36
ROOT
ATOM      1  C   UNL     1      -3.872  -1.389   0.000  1.00  0.00     0.020 C 
ATOM      2  C   UNL     1      -3.031  -2.632   0.000  1.00  0.00     0.009 C 
ATOM      3  C   UNL     1      -1.535  -2.526   0.000  1.00  0.00     0.008 C 
ATOM      4  C   UNL     1      -0.879  -1.177   0.000  1.00  0.00    -0.024 C 
ATOM      5  C   UNL     1      -2.375  -1.283   0.000  1.00  0.00     0.012 C 
ATOM      6  C   UNL     1      -1.719   0.066   0.000  1.00  0.00     0.002 C 
ATOM      7  C   UNL     1      -1.063   1.415   0.000  1.00  0.00     0.005 C 
ATOM      8  C   UNL     1       0.433   1.521   0.000  1.00  0.00     0.005 C 
ATOM      9  C   UNL     1       1.273   0.278   0.000  1.00  0.00     0.001 C 
ATOM     10  C   UNL     1       2.759   0.071   0.000  1.00  0.00     0.025 C 
ATOM     11  C   UNL     1       3.021  -1.406   0.000  1.00  0.00     0.007 C 
ATOM     12  C   UNL     1       1.697  -2.111   0.000  1.00  0.00     0.008 C 
ATOM     13  C   UNL     1       0.617  -1.071   0.000  1.00  0.00    -0.024 C 
ATOM     14  C   UNL     1       0.106  -2.481   0.000  1.00  0.00     0.012 C 
ATOM     15  C   UNL     1      -3.216  -0.041   0.000  1.00  0.00    -0.022 C 
ATOM     16  C   UNL     1      -3.061   1.451   0.000  1.00  0.00     0.012 C 
ENDROOT
BRANCH   1  17
ATOM     17  C   UNL     1      -5.368  -1.496   0.000  1.00  0.00    -0.077 C 
ATOM     18  C   UNL     1      -6.024  -2.845   0.000  1.00  0.00     0.008 C 
ATOM     19  C   UNL     1      -6.208  -0.253   0.000  1.00  0.00     0.039 C 
ENDBRANCH   1  17
BRANCH  15  20
ATOM     20  C   UNL     1      -4.658   0.371   0.000  1.00  0.00     0.019 C 
BRANCH  20  21
ATOM     21  C   UNL     1      -5.022   1.826   0.000  1.00  0.00     0.123 C 
BRANCH  21  22
ATOM     22  C   UNL     1      -6.465   2.238   0.000  1.00  0.00     0.303 C 
ATOM     23  O   UNL     1      -7.543   1.195   0.000  1.00  0.00    -0.252 OA
BRANCH  22  24
ATOM     24  O   UNL     1      -6.829   3.693   0.000  1.00  0.00    -0.481 OA
ATOM     25  H   UNL     1       0.000   0.000   0.000  1.00  0.00     0.296 HD
ENDBRANCH  22  24
ENDBRANCH  21  22
ENDBRANCH  20  21
ENDBRANCH  15  20
BRANCH  10  26
ATOM     26  C   UNL     1       3.800   1.151   0.000  1.00  0.00     0.069 C 
ATOM     27  C   UNL     1       4.593   2.424   0.000  1.00  0.00     0.038 C 
ATOM     28  O   UNL     1       4.765   0.004   0.000  1.00  0.00    -0.369 OA
ATOM     29  C   UNL     1       6.049   2.063   0.000  1.00  0.00     0.038 C 
ATOM     30  C   UNL     1       6.155   0.567   0.000  1.00  0.00     0.150 C 
ATOM     31  C   UNL     1       2.616   2.074   0.000  1.00  0.00     0.042 C 
BRANCH  30  32
ATOM     32  C   UNL     1       7.428  -0.227   0.000  1.00  0.00     0.085 C 
ATOM     33  C   UNL     1       8.222   1.046   0.000  1.00  0.00     0.044 C 
ATOM     34  C   UNL     1       6.635  -1.500   0.000  1.00  0.00     0.044 C 
BRANCH  32  35
ATOM     35  O   UNL     1       8.701  -1.020   0.000  1.00  0.00    -0.388 OA
ATOM     36  H   UNL     1       0.000   0.000   0.000  1.00  0.00     0.211 HD
ENDBRANCH  32  35
ENDBRANCH  30  32
ENDBRANCH  10  26
TORSDOF 8
