REMARK SMILES COc1ccc(-c2coc3cc(OC)cc(O)c3c2=O)c(OC)c1
REMARK SMILES IDX 7 1 8 2 9 3 10 4 11 5 12 6 15 7 16 8 18 9 19 10 20 11 6 12
REMARK SMILES IDX 3 13 4 14 24 15 5 16 21 17 2 18 1 19 22 20 23 21 17 22 13 24
REMARK SMILES IDX 14 25
REMARK H PARENT 17 23
ROOT
ATOM      1  C   UNL     1      -0.398  -0.321   0.000  1.00  0.00     0.069 A 
ATOM      2  C   UNL     1       0.142  -1.720   0.000  1.00  0.00     0.208 A 
ATOM      3  O   UNL     1       1.624  -1.952   0.000  1.00  0.00    -0.463 OA
ATOM      4  C   UNL     1       2.566  -0.784   0.000  1.00  0.00     0.145 A 
ATOM      5  C   UNL     1       4.048  -1.016   0.000  1.00  0.00     0.094 A 
ATOM      6  C   UNL     1       4.989   0.151   0.000  1.00  0.00     0.126 A 
ATOM      7  C   UNL     1       4.449   1.551   0.000  1.00  0.00     0.093 A 
ATOM      8  C   UNL     1       2.967   1.782   0.000  1.00  0.00     0.134 A 
ATOM      9  C   UNL     1       2.026   0.615   0.000  1.00  0.00     0.107 A 
ATOM     10  C   UNL     1       0.543   0.846   0.000  1.00  0.00     0.204 A 
ATOM     11  O   UNL     1       0.003   2.246   0.000  1.00  0.00    -0.288 OA
ENDROOT
BRANCH   1  12
ATOM     12  C   UNL     1      -1.880  -0.090   0.000  1.00  0.00     0.031 A 
ATOM     13  C   UNL     1      -4.844   0.374   0.000  1.00  0.00     0.122 A 
ATOM     14  C   UNL     1      -3.903   1.541   0.000  1.00  0.00     0.047 A 
ATOM     15  C   UNL     1      -4.304  -1.026   0.000  1.00  0.00     0.093 A 
ATOM     16  C   UNL     1      -2.421   1.310   0.000  1.00  0.00     0.016 A 
ATOM     17  C   UNL     1      -2.822  -1.257   0.000  1.00  0.00     0.130 A 
BRANCH  13  18
ATOM     18  O   UNL     1      -6.326   0.605   0.000  1.00  0.00    -0.497 OA
ATOM     19  C   UNL     1      -6.867   2.005   0.000  1.00  0.00     0.278 C 
ENDBRANCH  13  18
BRANCH  17  20
ATOM     20  O   UNL     1      -2.281  -2.657   0.000  1.00  0.00    -0.496 OA
ATOM     21  C   UNL     1      -3.223  -3.824   0.000  1.00  0.00     0.278 C 
ENDBRANCH  17  20
ENDBRANCH   1  12
BRANCH   8  22
ATOM     22  O   UNL     1       2.427   3.182   0.000  1.00  0.00    -0.507 OA
ATOM     23  H   UNL     1       0.000   0.000   0.000  1.00  0.00     0.293 HD
ENDBRANCH   8  22
BRANCH   6  24
ATOM     24  O   UNL     1       6.471  -0.080   0.000  1.00  0.00    -0.496 OA
ATOM     25  C   UNL     1       7.012  -1.479   0.000  1.00  0.00     0.278 C 
ENDBRANCH   6  24
TORSDOF 5
