REMARK SMILES CC1(C)CC[C@]2(C(=O)O)CC[C@]3(C)C(=CCC4[C@@]5(C)C[C@H](O)[C@@H](OC(=O)/C=C/c6ccc(O)cc6)C(C)(C)C5CC[C@]43C)C2C1
REMARK SMILES IDX 25 1 26 2 24 3 23 4 2 5 4 6 45 7 5 8 44 9 6 10 14 11 10 12
REMARK SMILES IDX 12 13 15 14 11 15 42 16 16 17 41 18 17 19 40 20 18 21 39 22
REMARK SMILES IDX 20 23 36 24 21 25 1 26 3 27 13 28 43 29 19 30 37 31 38 32
REMARK SMILES IDX 7 33 8 34 9 35 22 37 27 39 28 40 29 41 30 42 35 43 31 44
REMARK SMILES IDX 34 45 32 46 33 47
REMARK H PARENT 9 36 22 38 33 48
ROOT
ATOM      1  C   UNL     1       5.365  -0.202   0.000  1.00  0.00     0.331 C 
ATOM      2  O   UNL     1       4.851  -1.611   0.000  1.00  0.00    -0.247 OA
ENDROOT
BRANCH   1   3
ATOM      3  O   UNL     1       4.402   0.948   0.000  1.00  0.00    -0.456 OA
BRANCH   3   4
ATOM      4  C   UNL     1       2.925   0.689   0.000  1.00  0.00     0.211 C 
ATOM      5  C   UNL     1      -7.932  -2.534   0.000  1.00  0.00    -0.035 C 
ATOM      6  C   UNL     1      -8.895  -1.384   0.000  1.00  0.00     0.007 C 
ATOM      7  C   UNL     1      -6.454  -2.275   0.000  1.00  0.00     0.015 C 
ATOM      8  C   UNL     1      -8.380   0.025   0.000  1.00  0.00     0.020 C 
ATOM      9  C   UNL     1      -5.940  -0.866   0.000  1.00  0.00     0.033 C 
ATOM     10  C   UNL     1      -6.903   0.284   0.000  1.00  0.00     0.074 C 
ATOM     11  C   UNL     1      -4.462  -0.607   0.000  1.00  0.00    -0.063 C 
ATOM     12  C   UNL     1      -6.388   1.694   0.000  1.00  0.00     0.020 C 
ATOM     13  C   UNL     1      -3.948   0.803   0.000  1.00  0.00    -0.006 C 
ATOM     14  C   UNL     1      -3.499  -1.756   0.000  1.00  0.00    -0.027 C 
ATOM     15  C   UNL     1      -4.911   1.953   0.000  1.00  0.00     0.013 C 
ATOM     16  C   UNL     1      -2.470   1.062   0.000  1.00  0.00    -0.020 C 
ATOM     17  C   UNL     1      -2.022  -1.498   0.000  1.00  0.00     0.032 C 
ATOM     18  C   UNL     1      -1.956   2.471   0.000  1.00  0.00     0.008 C 
ATOM     19  C   UNL     1      -1.507  -0.088   0.000  1.00  0.00     0.006 C 
ATOM     20  C   UNL     1      -0.479   2.730   0.000  1.00  0.00     0.005 C 
ATOM     21  C   UNL     1      -0.030   0.171   0.000  1.00  0.00    -0.023 C 
ATOM     22  C   UNL     1       0.484   1.580   0.000  1.00  0.00     0.005 C 
ATOM     23  C   UNL     1       0.933  -0.979   0.000  1.00  0.00     0.043 C 
ATOM     24  C   UNL     1       1.962   1.839   0.000  1.00  0.00     0.008 C 
ATOM     25  C   UNL     1       2.411  -0.720   0.000  1.00  0.00     0.156 C 
ATOM     26  C   UNL     1      -7.420  -3.944   0.000  1.00  0.00     0.011 C 
ATOM     27  C   UNL     1      -9.231  -3.282   0.000  1.00  0.00     0.011 C 
ATOM     28  C   UNL     1      -2.985  -0.347   0.000  1.00  0.00     0.017 C 
ATOM     29  C   UNL     1      -3.433   2.212   0.000  1.00  0.00     0.012 C 
ATOM     30  C   UNL     1      -0.544  -1.238   0.000  1.00  0.00     0.012 C 
ATOM     31  C   UNL     1       1.450   3.249   0.000  1.00  0.00     0.015 C 
ATOM     32  C   UNL     1       3.262   2.587   0.000  1.00  0.00     0.015 C 
BRANCH  10  33
ATOM     33  C   UNL     1      -7.866   1.435   0.000  1.00  0.00     0.310 C 
ATOM     34  O   UNL     1      -9.343   1.175   0.000  1.00  0.00    -0.252 OA
BRANCH  33  35
ATOM     35  O   UNL     1      -7.351   2.844   0.000  1.00  0.00    -0.481 OA
ATOM     36  H   UNL     1       0.000   0.000   0.000  1.00  0.00     0.296 HD
ENDBRANCH  33  35
ENDBRANCH  10  33
BRANCH  25  37
ATOM     37  O   UNL     1       3.374  -1.870   0.000  1.00  0.00    -0.389 OA
ATOM     38  H   UNL     1       0.000   0.000   0.000  1.00  0.00     0.211 HD
ENDBRANCH  25  37
ENDBRANCH   3   4
ENDBRANCH   1   3
BRANCH   1  39
ATOM     39  C   UNL     1       6.843   0.057   0.000  1.00  0.00     0.094 C 
BRANCH  39  40
ATOM     40  C   UNL     1       7.806  -1.093   0.000  1.00  0.00     0.015 C 
BRANCH  40  41
ATOM     41  C   UNL     1       9.284  -0.834   0.000  1.00  0.00    -0.025 A 
ATOM     42  C   UNL     1      10.247  -1.984   0.000  1.00  0.00     0.012 A 
ATOM     43  C   UNL     1       9.798   0.575   0.000  1.00  0.00     0.012 A 
ATOM     44  C   UNL     1      11.724  -1.725   0.000  1.00  0.00     0.047 A 
ATOM     45  C   UNL     1      11.275   0.834   0.000  1.00  0.00     0.047 A 
ATOM     46  C   UNL     1      12.239  -0.316   0.000  1.00  0.00     0.115 A 
BRANCH  46  47
ATOM     47  O   UNL     1      13.716  -0.057   0.000  1.00  0.00    -0.508 OA
ATOM     48  H   UNL     1       0.000   0.000   0.000  1.00  0.00     0.293 HD
ENDBRANCH  46  47
ENDBRANCH  40  41
ENDBRANCH  39  40
ENDBRANCH   1  39
TORSDOF 9
