REMARK SMILES CC1=CC[C@@H]2C3[C@@H](C(C)C)CC[C@]2(C)[C@@H]13
REMARK SMILES IDX 1 1 2 2 3 3 4 4 5 5 6 6 7 7 11 8 12 9 13 10 14 11 15 12 8 13
REMARK SMILES IDX 9 14 10 15
REMARK H PARENT
ROOT
ATOM      1  C   UNL     1      -4.779  -0.080   0.000  1.00  0.00     0.039 C 
ATOM      2  C   UNL     1      -3.308   0.217   0.000  1.00  0.00    -0.073 C 
ATOM      3  C   UNL     1      -2.829   1.638   0.000  1.00  0.00    -0.027 C 
ATOM      4  C   UNL     1      -1.359   1.935   0.000  1.00  0.00     0.031 C 
ATOM      5  C   UNL     1      -0.367   0.809   0.000  1.00  0.00     0.003 C 
ATOM      6  C   UNL     1       1.103   1.106   0.000  1.00  0.00     0.004 C 
ATOM      7  C   UNL     1       2.095  -0.019   0.000  1.00  0.00    -0.005 C 
ATOM      8  C   UNL     1       1.617  -1.441   0.000  1.00  0.00     0.005 C 
ATOM      9  C   UNL     1       0.146  -1.737   0.000  1.00  0.00     0.008 C 
ATOM     10  C   UNL     1      -0.846  -0.612   0.000  1.00  0.00    -0.022 C 
ATOM     11  C   UNL     1      -1.324  -2.034   0.000  1.00  0.00     0.012 C 
ATOM     12  C   UNL     1      -2.316  -0.908   0.000  1.00  0.00     0.024 C 
ENDROOT
BRANCH   7  13
ATOM     13  C   UNL     1       3.566   0.277   0.000  1.00  0.00    -0.014 C 
ATOM     14  C   UNL     1       4.557  -0.849   0.000  1.00  0.00     0.007 C 
ATOM     15  C   UNL     1       4.044   1.698   0.000  1.00  0.00     0.007 C 
ENDBRANCH   7  13
TORSDOF 1
