REMARK SMILES O=c1c2cccc(O)c2oc2cccc(O)c12
REMARK SMILES IDX 1 1 2 2 3 3 4 4 5 5 6 6 7 7 9 8 10 9 11 10 12 11 13 12 14 13
REMARK SMILES IDX 15 14 17 15 16 16 8 18
REMARK H PARENT 16 17 8 19
ROOT
ATOM      1  O   UNL     1      -0.638  -2.750   0.000  1.00  0.00    -0.288 OA
ATOM      2  C   UNL     1      -0.299  -1.289   0.000  1.00  0.00     0.204 A 
ATOM      3  C   UNL     1       1.136  -0.852   0.000  1.00  0.00     0.069 A 
ATOM      4  C   UNL     1       2.232  -1.877   0.000  1.00  0.00     0.016 A 
ATOM      5  C   UNL     1       3.667  -1.440   0.000  1.00  0.00     0.005 A 
ATOM      6  C   UNL     1       4.006   0.021   0.000  1.00  0.00     0.050 A 
ATOM      7  C   UNL     1       2.910   1.046   0.000  1.00  0.00     0.159 A 
ATOM      8  C   UNL     1       1.475   0.609   0.000  1.00  0.00     0.180 A 
ATOM      9  O   UNL     1       0.379   1.633   0.000  1.00  0.00    -0.452 OA
ATOM     10  C   UNL     1      -1.056   1.196   0.000  1.00  0.00     0.142 A 
ATOM     11  C   UNL     1      -2.152   2.221   0.000  1.00  0.00     0.048 A 
ATOM     12  C   UNL     1      -3.587   1.784   0.000  1.00  0.00     0.008 A 
ATOM     13  C   UNL     1      -3.926   0.323   0.000  1.00  0.00     0.047 A 
ATOM     14  C   UNL     1      -2.830  -0.702   0.000  1.00  0.00     0.130 A 
ATOM     15  C   UNL     1      -1.395  -0.265   0.000  1.00  0.00     0.107 A 
ENDROOT
BRANCH  14  16
ATOM     16  O   UNL     1      -3.169  -2.163   0.000  1.00  0.00    -0.507 OA
ATOM     17  H   UNL     1       0.000   0.000   0.000  1.00  0.00     0.293 HD
ENDBRANCH  14  16
BRANCH   7  18
ATOM     18  O   UNL     1       3.249   2.507   0.000  1.00  0.00    -0.504 OA
ATOM     19  H   UNL     1       0.000   0.000   0.000  1.00  0.00     0.293 HD
ENDBRANCH   7  18
TORSDOF 2
