REMARK SMILES C[C@H]1O[C@H](O[C@H]2Cc3c(O)cc(O)cc3O[C@@H]2c2ccc(O)cc2)[C@@H](O)[C@@H](OC(=O)/C=C/c2ccccc2)[C@@H]1O
REMARK SMILES IDX 1 1 2 2 3 3 4 4 25 5 27 6 39 7 40 8 5 10 6 11 7 12 17 13
REMARK SMILES IDX 8 14 16 15 9 16 15 17 11 18 14 19 12 20 18 21 19 22 24 23
REMARK SMILES IDX 20 24 23 25 21 26 22 27 10 29 13 31 28 33 29 34 30 35 31 36
REMARK SMILES IDX 32 37 33 38 34 39 38 40 35 41 37 42 36 43 26 44
REMARK H PARENT 40 9 22 28 10 30 13 32 26 45
ROOT
ATOM      1  C   UNL     1      -0.376   3.885   0.000  1.00  0.00     0.042 C 
ATOM      2  C   UNL     1      -0.533   2.394   0.000  1.00  0.00     0.151 C 
ATOM      3  O   UNL     1       0.681   1.512   0.000  1.00  0.00    -0.344 OA
ATOM      4  C   UNL     1       0.525   0.020   0.000  1.00  0.00     0.283 C 
ATOM      5  C   UNL     1      -0.846  -0.590   0.000  1.00  0.00     0.214 C 
ATOM      6  C   UNL     1      -2.059   0.291   0.000  1.00  0.00     0.241 C 
ATOM      7  C   UNL     1      -1.903   1.783   0.000  1.00  0.00     0.187 C 
ENDROOT
BRANCH   7   8
ATOM      8  O   UNL     1      -3.117   2.665   0.000  1.00  0.00    -0.386 OA
ATOM      9  H   UNL     1       0.000   0.000   0.000  1.00  0.00     0.211 HD
ENDBRANCH   7   8
BRANCH   4  10
ATOM     10  O   UNL     1       1.738  -0.861   0.000  1.00  0.00    -0.342 OA
BRANCH  10  11
ATOM     11  C   UNL     1       3.108  -0.251   0.000  1.00  0.00     0.171 C 
ATOM     12  C   UNL     1       3.265   1.241   0.000  1.00  0.00     0.080 C 
ATOM     13  C   UNL     1       4.322  -1.132   0.000  1.00  0.00     0.233 C 
ATOM     14  C   UNL     1       4.635   1.852   0.000  1.00  0.00     0.039 A 
ATOM     15  O   UNL     1       5.692  -0.522   0.000  1.00  0.00    -0.482 OA
ATOM     16  C   UNL     1       4.792   3.343   0.000  1.00  0.00     0.126 A 
ATOM     17  C   UNL     1       5.849   0.970   0.000  1.00  0.00     0.131 A 
ATOM     18  C   UNL     1       6.162   3.954   0.000  1.00  0.00     0.092 A 
ATOM     19  C   UNL     1       7.219   1.581   0.000  1.00  0.00     0.093 A 
ATOM     20  C   UNL     1       7.375   3.072   0.000  1.00  0.00     0.122 A 
BRANCH  13  21
ATOM     21  C   UNL     1       4.166  -2.624   0.000  1.00  0.00    -0.005 A 
ATOM     22  C   UNL     1       5.380  -3.505   0.000  1.00  0.00     0.011 A 
ATOM     23  C   UNL     1       2.796  -3.234   0.000  1.00  0.00     0.011 A 
ATOM     24  C   UNL     1       5.223  -4.997   0.000  1.00  0.00     0.046 A 
ATOM     25  C   UNL     1       2.639  -4.726   0.000  1.00  0.00     0.046 A 
ATOM     26  C   UNL     1       3.853  -5.607   0.000  1.00  0.00     0.115 A 
BRANCH  26  27
ATOM     27  O   UNL     1       3.696  -7.099   0.000  1.00  0.00    -0.508 OA
ATOM     28  H   UNL     1       0.000   0.000   0.000  1.00  0.00     0.293 HD
ENDBRANCH  26  27
ENDBRANCH  13  21
BRANCH  16  29
ATOM     29  O   UNL     1       3.578   4.225   0.000  1.00  0.00    -0.507 OA
ATOM     30  H   UNL     1       0.000   0.000   0.000  1.00  0.00     0.293 HD
ENDBRANCH  16  29
BRANCH  20  31
ATOM     31  O   UNL     1       8.746   3.683   0.000  1.00  0.00    -0.508 OA
ATOM     32  H   UNL     1       0.000   0.000   0.000  1.00  0.00     0.293 HD
ENDBRANCH  20  31
ENDBRANCH  10  11
ENDBRANCH   4  10
BRANCH   6  33
ATOM     33  O   UNL     1      -3.429  -0.319   0.000  1.00  0.00    -0.453 OA
BRANCH  33  34
ATOM     34  C   UNL     1      -4.643   0.562   0.000  1.00  0.00     0.331 C 
ATOM     35  O   UNL     1      -4.487   2.054   0.000  1.00  0.00    -0.247 OA
BRANCH  34  36
ATOM     36  C   UNL     1      -6.013  -0.048   0.000  1.00  0.00     0.094 C 
BRANCH  36  37
ATOM     37  C   UNL     1      -7.227   0.833   0.000  1.00  0.00     0.015 C 
BRANCH  37  38
ATOM     38  C   UNL     1      -8.597   0.223   0.000  1.00  0.00    -0.025 A 
ATOM     39  C   UNL     1      -9.811   1.104   0.000  1.00  0.00     0.008 A 
ATOM     40  C   UNL     1      -8.754  -1.269   0.000  1.00  0.00     0.008 A 
ATOM     41  C   UNL     1     -11.181   0.494   0.000  1.00  0.00     0.001 A 
ATOM     42  C   UNL     1     -10.124  -1.879   0.000  1.00  0.00     0.001 A 
ATOM     43  C   UNL     1     -11.338  -0.998   0.000  1.00  0.00     0.000 A 
ENDBRANCH  37  38
ENDBRANCH  36  37
ENDBRANCH  34  36
ENDBRANCH  33  34
ENDBRANCH   6  33
BRANCH   5  44
ATOM     44  O   UNL     1      -1.002  -2.082   0.000  1.00  0.00    -0.384 OA
ATOM     45  H   UNL     1       0.000   0.000   0.000  1.00  0.00     0.211 HD
ENDBRANCH   5  44
TORSDOF 13
