REMARK SMILES COc1cc(O[C@@H]2O[C@H](CO)[C@@H](O)[C@H](O)[C@H]2O)c2c(=O)c(O[C@@H]3O[C@H](CO[C@@H]4O[C@@H](C)[C@H](O)[C@@H](O)[C@H]4O)[C@@H](O)[C@H](O)[C@H]3O)c(-c3ccc(OC)c(O)c3)oc2c1
REMARK SMILES IDX 22 1 21 2 3 3 4 4 56 5 5 6 55 7 18 8 54 9 19 10 44 11 20 12
REMARK SMILES IDX 2 13 1 14 6 15 7 16 8 17 16 18 9 19 14 20 12 21 17 22 10 24
REMARK SMILES IDX 11 25 15 27 13 29 45 31 46 32 53 33 47 34 51 35 48 36 52 37
REMARK SMILES IDX 49 39 50 40 23 41 24 42 42 43 25 44 40 45 38 46 43 47 26 49
REMARK SMILES IDX 27 50 28 51 29 52 36 53 30 54 34 55 32 56 31 57 37 58 35 60
REMARK SMILES IDX 33 62 41 64 39 66
REMARK H PARENT 17 23 11 26 15 28 13 30 52 38 43 48 37 59 35 61 33 63 41 65
REMARK H PARENT 39 67
ROOT
ATOM      1  O   UNL     1       2.420   1.703   0.000  1.00  0.00    -0.454 OA
ENDROOT
BRANCH   1   2
ATOM      2  C   UNL     1       2.736   0.237   0.000  1.00  0.00     0.214 A 
ATOM      3  C   UNL     1       2.572  -5.169   0.000  1.00  0.00     0.126 A 
ATOM      4  C   UNL     1       1.144  -4.709   0.000  1.00  0.00     0.094 A 
ATOM      5  C   UNL     1       3.684  -4.162   0.000  1.00  0.00     0.094 A 
ATOM      6  C   UNL     1       0.828  -3.243   0.000  1.00  0.00     0.141 A 
ATOM      7  C   UNL     1       3.368  -2.696   0.000  1.00  0.00     0.146 A 
ATOM      8  C   UNL     1       1.940  -2.236   0.000  1.00  0.00     0.111 A 
ATOM      9  O   UNL     1       4.480  -1.689   0.000  1.00  0.00    -0.452 OA
ATOM     10  C   UNL     1       1.624  -0.770   0.000  1.00  0.00     0.239 A 
ATOM     11  C   UNL     1       4.164  -0.223   0.000  1.00  0.00     0.180 A 
ATOM     12  O   UNL     1       0.196  -0.310   0.000  1.00  0.00    -0.285 OA
BRANCH   3  13
ATOM     13  O   UNL     1       2.888  -6.635   0.000  1.00  0.00    -0.496 OA
ATOM     14  C   UNL     1       1.776  -7.642   0.000  1.00  0.00     0.278 C 
ENDBRANCH   3  13
BRANCH   6  15
ATOM     15  O   UNL     1      -0.600  -2.784   0.000  1.00  0.00    -0.461 OA
BRANCH  15  16
ATOM     16  C   UNL     1      -1.712  -3.790   0.000  1.00  0.00     0.339 C 
ATOM     17  O   UNL     1      -3.140  -3.331   0.000  1.00  0.00    -0.332 OA
ATOM     18  C   UNL     1      -1.396  -5.257   0.000  1.00  0.00     0.214 C 
ATOM     19  C   UNL     1      -4.252  -4.338   0.000  1.00  0.00     0.179 C 
ATOM     20  C   UNL     1      -2.508  -6.263   0.000  1.00  0.00     0.180 C 
ATOM     21  C   UNL     1      -3.936  -5.804   0.000  1.00  0.00     0.177 C 
BRANCH  18  22
ATOM     22  O   UNL     1       0.032  -5.716   0.000  1.00  0.00    -0.384 OA
ATOM     23  H   UNL     1       0.000   0.000   0.000  1.00  0.00     0.211 HD
ENDBRANCH  18  22
BRANCH  19  24
ATOM     24  C   UNL     1      -5.680  -3.878   0.000  1.00  0.00     0.191 C 
BRANCH  24  25
ATOM     25  O   UNL     1      -5.995  -2.412   0.000  1.00  0.00    -0.394 OA
ATOM     26  H   UNL     1       0.000   0.000   0.000  1.00  0.00     0.210 HD
ENDBRANCH  24  25
ENDBRANCH  19  24
BRANCH  20  27
ATOM     27  O   UNL     1      -2.192  -7.730   0.000  1.00  0.00    -0.387 OA
ATOM     28  H   UNL     1       0.000   0.000   0.000  1.00  0.00     0.211 HD
ENDBRANCH  20  27
BRANCH  21  29
ATOM     29  O   UNL     1      -5.048  -6.811   0.000  1.00  0.00    -0.387 OA
ATOM     30  H   UNL     1       0.000   0.000   0.000  1.00  0.00     0.211 HD
ENDBRANCH  21  29
ENDBRANCH  15  16
ENDBRANCH   6  15
BRANCH  11  31
ATOM     31  C   UNL     1       5.276   0.784   0.000  1.00  0.00     0.025 A 
ATOM     32  C   UNL     1       4.960   2.250   0.000  1.00  0.00     0.016 A 
ATOM     33  C   UNL     1       6.704   0.325   0.000  1.00  0.00     0.062 A 
ATOM     34  C   UNL     1       6.072   3.257   0.000  1.00  0.00     0.051 A 
ATOM     35  C   UNL     1       7.815   1.331   0.000  1.00  0.00     0.158 A 
ATOM     36  C   UNL     1       7.500   2.798   0.000  1.00  0.00     0.160 A 
BRANCH  35  37
ATOM     37  O   UNL     1       9.243   0.872   0.000  1.00  0.00    -0.504 OA
ATOM     38  H   UNL     1       0.000   0.000   0.000  1.00  0.00     0.293 HD
ENDBRANCH  35  37
BRANCH  36  39
ATOM     39  O   UNL     1       8.611   3.804   0.000  1.00  0.00    -0.493 OA
ATOM     40  C   UNL     1       8.295   5.271   0.000  1.00  0.00     0.278 C 
ENDBRANCH  36  39
ENDBRANCH  11  31
ENDBRANCH   1   2
BRANCH   1  41
ATOM     41  C   UNL     1       0.992   2.163   0.000  1.00  0.00     0.339 C 
ATOM     42  O   UNL     1      -0.120   1.156   0.000  1.00  0.00    -0.332 OA
ATOM     43  C   UNL     1       0.676   3.629   0.000  1.00  0.00     0.214 C 
ATOM     44  C   UNL     1      -1.548   1.615   0.000  1.00  0.00     0.180 C 
ATOM     45  C   UNL     1      -0.752   4.089   0.000  1.00  0.00     0.180 C 
ATOM     46  C   UNL     1      -1.864   3.082   0.000  1.00  0.00     0.177 C 
BRANCH  43  47
ATOM     47  O   UNL     1       1.788   4.636   0.000  1.00  0.00    -0.384 OA
ATOM     48  H   UNL     1       0.000   0.000   0.000  1.00  0.00     0.211 HD
ENDBRANCH  43  47
BRANCH  44  49
ATOM     49  C   UNL     1      -2.660   0.609   0.000  1.00  0.00     0.198 C 
BRANCH  49  50
ATOM     50  O   UNL     1      -4.088   1.068   0.000  1.00  0.00    -0.347 OA
BRANCH  50  51
ATOM     51  C   UNL     1      -4.404   2.535   0.000  1.00  0.00     0.281 C 
ATOM     52  O   UNL     1      -3.292   3.542   0.000  1.00  0.00    -0.344 OA
ATOM     53  C   UNL     1      -5.831   2.994   0.000  1.00  0.00     0.202 C 
ATOM     54  C   UNL     1      -3.607   5.008   0.000  1.00  0.00     0.150 C 
ATOM     55  C   UNL     1      -6.147   4.461   0.000  1.00  0.00     0.179 C 
ATOM     56  C   UNL     1      -5.035   5.467   0.000  1.00  0.00     0.174 C 
ATOM     57  C   UNL     1      -2.496   6.015   0.000  1.00  0.00     0.041 C 
BRANCH  53  58
ATOM     58  O   UNL     1      -6.943   1.988   0.000  1.00  0.00    -0.385 OA
ATOM     59  H   UNL     1       0.000   0.000   0.000  1.00  0.00     0.211 HD
ENDBRANCH  53  58
BRANCH  55  60
ATOM     60  O   UNL     1      -7.575   4.920   0.000  1.00  0.00    -0.387 OA
ATOM     61  H   UNL     1       0.000   0.000   0.000  1.00  0.00     0.211 HD
ENDBRANCH  55  60
BRANCH  56  62
ATOM     62  O   UNL     1      -5.351   6.934   0.000  1.00  0.00    -0.388 OA
ATOM     63  H   UNL     1       0.000   0.000   0.000  1.00  0.00     0.211 HD
ENDBRANCH  56  62
ENDBRANCH  50  51
ENDBRANCH  49  50
ENDBRANCH  44  49
BRANCH  45  64
ATOM     64  O   UNL     1      -1.068   5.555   0.000  1.00  0.00    -0.387 OA
ATOM     65  H   UNL     1       0.000   0.000   0.000  1.00  0.00     0.211 HD
ENDBRANCH  45  64
BRANCH  46  66
ATOM     66  O   UNL     1      -2.541   3.502   0.000  1.00  0.00    -0.387 OA
ATOM     67  H   UNL     1       0.000   0.000   0.000  1.00  0.00     0.211 HD
ENDBRANCH  46  66
ENDBRANCH   1  41
TORSDOF 22
