REMARK SMILES C=C1[C@@H](O)C2C=CC[C@@H](C)CCC[C@@H](O)C=CC(=O)OC23C(=O)N[C@@H](Cc2ccccc2)[C@@H]3[C@H]1C
REMARK SMILES IDX 1 1 2 2 3 3 5 4 21 5 22 6 23 7 24 8 25 9 33 10 34 11 35 12
REMARK SMILES IDX 4 14 6 16 7 17 8 18 9 19 10 20 11 21 12 22 20 24 18 25 19 26
REMARK SMILES IDX 17 27 16 28 14 29 13 30 15 32 26 34 27 35 28 36 32 37 29 38
REMARK SMILES IDX 31 39 30 40
REMARK H PARENT 24 13 4 15 15 33
REMARK Flexibility Score:   35.900
ROOT
ATOM      1  C   UNL     1      -0.800   5.643   0.000  1.00  0.00     0.011 C 
ATOM      2  C   UNL     1      -0.566   4.162   0.000  1.00  0.00    -0.045 C 
ATOM      3  C   UNL     1       0.834   3.624   0.000  1.00  0.00     0.151 C 
ATOM      4  C   UNL     1       1.069   2.143   0.000  1.00  0.00     0.099 C 
ATOM      5  C   UNL     1      -0.097   1.199   0.000  1.00  0.00     0.204 C 
ATOM      6  C   UNL     1      -0.301   1.713   0.000  1.00  0.00     0.265 C 
ATOM      7  O   UNL     1       0.990  -1.243   0.000  1.00  0.00    -0.270 OA
ATOM      8  N   UNL     1      -0.872   1.273   0.000  1.00  0.00    -0.349 N 
ATOM      9  C   UNL     1      -1.001   1.982   0.000  1.00  0.00     0.094 C 
ATOM     10  C   UNL     1      -1.497   1.736   0.000  1.00  0.00     0.073 C 
ATOM     11  C   UNL     1      -1.732   3.218   0.000  1.00  0.00     0.024 C 
ATOM     12  C   UNL     1      -3.132   3.756   0.000  1.00  0.00     0.013 C 
ATOM     13  H   UNL     1       0.000   0.000   0.000  1.00  0.00     0.163 HD
ENDROOT
BRANCH   3  14
ATOM     14  O   UNL     1       2.000   4.568   0.000  1.00  0.00    -0.388 OA
ATOM     15  H   UNL     1       0.000   0.000   0.000  1.00  0.00     0.211 HD
ENDBRANCH   3  14
BRANCH   4  16
ATOM     16  C   UNL     1       2.529   2.487   0.000  1.00  0.00    -0.020 C 
BRANCH  16  17
ATOM     17  C   UNL     1       3.994   2.164   0.000  1.00  0.00    -0.030 C 
BRANCH  17  18
ATOM     18  C   UNL     1       5.173   1.238   0.000  1.00  0.00     0.030 C 
BRANCH  18  19
ATOM     19  C   UNL     1       5.834  -0.108   0.000  1.00  0.00    -0.011 C 
ATOM     20  C   UNL     1       7.294   0.236   0.000  1.00  0.00     0.008 C 
BRANCH  19  21
ATOM     21  C   UNL     1       5.845  -1.609   0.000  1.00  0.00     0.004 C 
BRANCH  21  22
ATOM     22  C   UNL     1       5.205  -2.965   0.000  1.00  0.00     0.003 CG0
ATOM     23  G   UNL     1       4.039  -3.909   0.000  1.00  0.00     0.000 G0
ENDBRANCH  21  22
ENDBRANCH  19  21
ENDBRANCH  18  19
ENDBRANCH  17  18
ENDBRANCH  16  17
ENDBRANCH   4  16
BRANCH   5  24
ATOM     24  O   UNL     1      -0.738  -0.158   0.000  1.00  0.00    -0.445 OA
BRANCH  24  25
ATOM     25  C   UNL     1      -0.726  -1.657   0.000  1.00  0.00     0.331 C 
ATOM     26  O   UNL     1      -2.186  -2.002   0.000  1.00  0.00    -0.247 OA
BRANCH  25  27
ATOM     27  C   UNL     1      -0.065  -3.004   0.000  1.00  0.00     0.092 C 
BRANCH  27  28
ATOM     28  C   UNL     1       1.114  -3.930   0.000  1.00  0.00     0.012 C 
BRANCH  28  29
ATOM     29  C   UNL     1       2.579  -4.253   0.000  1.00  0.00     0.137 C 
BRANCH  29  30
ATOM     30  C   UNL     1       4.039  -3.909   0.000  1.00  0.00     0.036 CG0
ATOM     31  G   UNL     1       5.205  -2.965   0.000  1.00  0.00     0.000 G0
ENDBRANCH  29  30
BRANCH  29  32
ATOM     32  O   UNL     1       2.590  -5.753   0.000  1.00  0.00    -0.389 OA
ATOM     33  H   UNL     1       0.000   0.000   0.000  1.00  0.00     0.211 HD
ENDBRANCH  29  32
ENDBRANCH  28  29
ENDBRANCH  27  28
ENDBRANCH  25  27
ENDBRANCH  24  25
ENDBRANCH   5  24
BRANCH   9  34
ATOM     34  C   UNL     1      -3.939   0.649   0.000  1.00  0.00     0.060 C 
BRANCH  34  35
ATOM     35  C   UNL     1      -4.756  -0.609   0.000  1.00  0.00    -0.046 A 
ATOM     36  C   UNL     1      -6.254  -0.530   0.000  1.00  0.00     0.004 A 
ATOM     37  C   UNL     1      -4.075  -1.945   0.000  1.00  0.00     0.004 A 
ATOM     38  C   UNL     1      -7.071  -1.788   0.000  1.00  0.00     0.000 A 
ATOM     39  C   UNL     1      -4.892  -3.203   0.000  1.00  0.00     0.000 A 
ATOM     40  C   UNL     1      -6.390  -3.125   0.000  1.00  0.00     0.000 A 
ENDBRANCH  34  35
ENDBRANCH   9  34
TORSDOF 4
