REMARK SMILES COC1=CC(=O)O[C@@H](CCc2ccc(OC)c(OC)c2)C1
REMARK SMILES IDX 9 1 8 2 3 3 4 4 21 5 5 6 7 7 6 8 2 9 1 10 10 11 11 12 12 13
REMARK SMILES IDX 20 14 13 15 17 16 14 17 18 18 19 19 15 20 16 21
REMARK H PARENT
ROOT
ATOM      1  C   UNL     1      -0.707   0.520   0.000  1.00  0.00     0.050 C 
ENDROOT
BRANCH   1   2
ATOM      2  C   UNL     1      -2.205   0.442   0.000  1.00  0.00     0.184 C 
ATOM      3  C   UNL     1      -4.384  -0.973   0.000  1.00  0.00     0.106 C 
ATOM      4  C   UNL     1      -5.201   0.285   0.000  1.00  0.00     0.135 C 
ATOM      5  C   UNL     1      -2.886  -0.894   0.000  1.00  0.00     0.120 C 
ATOM      6  C   UNL     1      -4.519   1.622   0.000  1.00  0.00     0.334 C 
ATOM      7  O   UNL     1      -3.022   1.700   0.000  1.00  0.00    -0.459 OA
ATOM      8  O   UNL     1      -5.336   2.880   0.000  1.00  0.00    -0.247 OA
BRANCH   3   9
ATOM      9  O   UNL     1      -5.065  -2.309   0.000  1.00  0.00    -0.501 OA
ATOM     10  C   UNL     1      -6.563  -2.388   0.000  1.00  0.00     0.278 C 
ENDBRANCH   3   9
ENDBRANCH   1   2
BRANCH   1  11
ATOM     11  C   UNL     1       0.110  -0.738   0.000  1.00  0.00     0.039 C 
BRANCH  11  12
ATOM     12  C   UNL     1       1.608  -0.659   0.000  1.00  0.00    -0.044 A 
ATOM     13  C   UNL     1       2.425  -1.917   0.000  1.00  0.00     0.008 A 
ATOM     14  C   UNL     1       2.289   0.677   0.000  1.00  0.00     0.054 A 
ATOM     15  C   UNL     1       3.923  -1.839   0.000  1.00  0.00     0.051 A 
ATOM     16  C   UNL     1       3.787   0.756   0.000  1.00  0.00     0.160 A 
ATOM     17  C   UNL     1       4.604  -0.502   0.000  1.00  0.00     0.160 A 
BRANCH  16  18
ATOM     18  O   UNL     1       4.468   2.092   0.000  1.00  0.00    -0.493 OA
ATOM     19  C   UNL     1       3.651   3.350   0.000  1.00  0.00     0.278 C 
ENDBRANCH  16  18
BRANCH  17  20
ATOM     20  O   UNL     1       6.102  -0.424   0.000  1.00  0.00    -0.493 OA
ATOM     21  C   UNL     1       6.919  -1.682   0.000  1.00  0.00     0.278 C 
ENDBRANCH  17  20
ENDBRANCH  11  12
ENDBRANCH   1  11
TORSDOF 6
