REMARK SMILES C=CCc1ccc(OC)cc1
REMARK SMILES IDX 4 1 5 2 6 3 7 4 10 5 11 6 3 7 2 8 1 9 8 10 9 11
REMARK H PARENT
ROOT
ATOM      1  C   UNL     1      -0.971  -0.343   0.000  1.00  0.00    -0.044 A 
ATOM      2  C   UNL     1      -0.528   1.091   0.000  1.00  0.00     0.008 A 
ATOM      3  C   UNL     1       0.934   1.424   0.000  1.00  0.00     0.046 A 
ATOM      4  C   UNL     1       1.954   0.325   0.000  1.00  0.00     0.118 A 
ATOM      5  C   UNL     1       1.512  -1.109   0.000  1.00  0.00     0.046 A 
ATOM      6  C   UNL     1       0.049  -1.442   0.000  1.00  0.00     0.008 A 
ENDROOT
BRANCH   1   7
ATOM      7  C   UNL     1      -2.433  -0.676   0.000  1.00  0.00     0.062 C 
BRANCH   7   8
ATOM      8  C   UNL     1      -3.453   0.424   0.000  1.00  0.00    -0.030 C 
ATOM      9  C   UNL     1      -4.916   0.090   0.000  1.00  0.00     0.004 C 
ENDBRANCH   7   8
ENDBRANCH   1   7
BRANCH   4  10
ATOM     10  O   UNL     1       3.417   0.658   0.000  1.00  0.00    -0.497 OA
ATOM     11  C   UNL     1       4.436  -0.442   0.000  1.00  0.00     0.278 C 
ENDBRANCH   4  10
TORSDOF 3
