REMARK SMILES COc1ccc(CCCc2cc3c(cc2OC)OCO3)c(O)c1
REMARK SMILES IDX 8 1 7 2 6 3 3 4 4 5 23 6 5 7 21 8 2 9 1 10 22 11 9 13 10 14
REMARK SMILES IDX 11 15 15 16 12 17 14 18 13 19 20 20 18 21 19 22 16 23 17 24
REMARK H PARENT 22 12
ROOT
ATOM      1  C   UNL     1       0.254   0.856   0.000  1.00  0.00     0.010 C 
ENDROOT
BRANCH   1   2
ATOM      2  C   UNL     1       1.529   1.647   0.000  1.00  0.00     0.040 C 
BRANCH   2   3
ATOM      3  C   UNL     1       2.851   0.938   0.000  1.00  0.00    -0.006 A 
ATOM      4  C   UNL     1       5.495  -0.480   0.000  1.00  0.00     0.122 A 
ATOM      5  C   UNL     1       4.220  -1.270   0.000  1.00  0.00     0.047 A 
ATOM      6  C   UNL     1       5.448   1.020   0.000  1.00  0.00     0.092 A 
ATOM      7  C   UNL     1       2.898  -0.561   0.000  1.00  0.00     0.011 A 
ATOM      8  C   UNL     1       4.126   1.728   0.000  1.00  0.00     0.122 A 
BRANCH   4   9
ATOM      9  O   UNL     1       6.817  -1.188   0.000  1.00  0.00    -0.497 OA
ATOM     10  C   UNL     1       6.864  -2.688   0.000  1.00  0.00     0.278 C 
ENDBRANCH   4   9
BRANCH   8  11
ATOM     11  O   UNL     1       4.079   3.228   0.000  1.00  0.00    -0.508 OA
ATOM     12  H   UNL     1       0.000   0.000   0.000  1.00  0.00     0.293 HD
ENDBRANCH   8  11
ENDBRANCH   2   3
ENDBRANCH   1   2
BRANCH   1  13
ATOM     13  C   UNL     1      -1.068   1.565   0.000  1.00  0.00     0.040 C 
BRANCH  13  14
ATOM     14  C   UNL     1      -2.343   0.775   0.000  1.00  0.00    -0.002 A 
ATOM     15  C   UNL     1      -3.665   1.483   0.000  1.00  0.00     0.058 A 
ATOM     16  C   UNL     1      -2.296  -0.725   0.000  1.00  0.00     0.126 A 
ATOM     17  C   UNL     1      -4.939   0.693   0.000  1.00  0.00     0.166 A 
ATOM     18  C   UNL     1      -3.570  -1.515   0.000  1.00  0.00     0.097 A 
ATOM     19  C   UNL     1      -4.892  -0.806   0.000  1.00  0.00     0.169 A 
ATOM     20  O   UNL     1      -6.380   1.111   0.000  1.00  0.00    -0.454 OA
ATOM     21  O   UNL     1      -6.304  -1.315   0.000  1.00  0.00    -0.453 OA
ATOM     22  C   UNL     1      -7.223  -0.129   0.000  1.00  0.00     0.468 C 
BRANCH  16  23
ATOM     23  O   UNL     1      -0.974  -1.433   0.000  1.00  0.00    -0.496 OA
ATOM     24  C   UNL     1      -0.926  -2.933   0.000  1.00  0.00     0.278 C 
ENDBRANCH  16  23
ENDBRANCH  13  14
ENDBRANCH   1  13
TORSDOF 7
