REMARK SMILES CC[C@H]1C(=O)C[C@H]2[C@@H]3CC[C@H]4C[C@@H](O)[C@]5(O)C[C@]4(CO5)[C@H]3CC[C@]12C
REMARK SMILES IDX 3 1 4 2 5 3 6 4 7 5 8 6 9 7 10 8 11 9 12 10 13 11 15 12
REMARK SMILES IDX 17 13 18 14 19 15 20 16 21 17 22 18 23 19 24 20 25 21 2 22
REMARK SMILES IDX 1 23 16 24 14 26
REMARK H PARENT 16 25 14 27
ROOT
ATOM      1  C   UNL     1      -4.050   0.378   0.000  1.00  0.00     0.062 C 
ATOM      2  C   UNL     1      -4.389  -1.083   0.000  1.00  0.00     0.136 C 
ATOM      3  O   UNL     1      -5.770  -1.668   0.000  1.00  0.00    -0.299 OA
ATOM      4  C   UNL     1      -3.104  -1.857   0.000  1.00  0.00     0.080 C 
ATOM      5  C   UNL     1      -1.971  -0.874   0.000  1.00  0.00     0.006 C 
ATOM      6  C   UNL     1      -0.482  -1.058   0.000  1.00  0.00    -0.003 C 
ATOM      7  C   UNL     1       0.102  -2.439   0.000  1.00  0.00     0.004 C 
ATOM      8  C   UNL     1       1.591  -2.624   0.000  1.00  0.00     0.005 C 
ATOM      9  C   UNL     1       2.495  -1.427   0.000  1.00  0.00     0.001 C 
ATOM     10  C   UNL     1       3.995  -1.441   0.000  1.00  0.00     0.041 C 
ATOM     11  C   UNL     1       4.757  -0.149   0.000  1.00  0.00     0.174 C 
ATOM     12  C   UNL     1       4.020   1.157   0.000  1.00  0.00     0.192 C 
ATOM     13  C   UNL     1       3.397  -0.207   0.000  1.00  0.00     0.078 C 
ATOM     14  C   UNL     1       1.907  -0.036   0.000  1.00  0.00     0.005 C 
ATOM     15  C   UNL     1       1.609   1.434   0.000  1.00  0.00     0.171 C 
ATOM     16  O   UNL     1       2.915   2.171   0.000  1.00  0.00    -0.347 OA
ATOM     17  C   UNL     1       0.422   0.139   0.000  1.00  0.00     0.001 C 
ATOM     18  C   UNL     1      -0.163   1.520   0.000  1.00  0.00     0.005 C 
ATOM     19  C   UNL     1      -1.652   1.705   0.000  1.00  0.00     0.008 C 
ATOM     20  C   UNL     1      -2.556   0.508   0.000  1.00  0.00    -0.019 C 
ATOM     21  C   UNL     1      -3.281   1.820   0.000  1.00  0.00     0.012 C 
ENDROOT
BRANCH   1  22
ATOM     22  C   UNL     1      -5.033   1.511   0.000  1.00  0.00     0.008 C 
ATOM     23  C   UNL     1      -6.506   1.227   0.000  1.00  0.00     0.005 C 
ENDBRANCH   1  22
BRANCH  12  24
ATOM     24  O   UNL     1       5.490   1.455   0.000  1.00  0.00    -0.363 OA
ATOM     25  H   UNL     1       0.000   0.000   0.000  1.00  0.00     0.214 HD
ENDBRANCH  12  24
BRANCH  11  26
ATOM     26  O   UNL     1       6.257  -0.164   0.000  1.00  0.00    -0.388 OA
ATOM     27  H   UNL     1       0.000   0.000   0.000  1.00  0.00     0.211 HD
ENDBRANCH  11  26
TORSDOF 3
