REMARK SMILES C=C[C@@]1(C)CC[C@H]([C@@]2(C)CCCC(C)(C)[C@@H]2CC(=O)OC)C(=O)C1
REMARK SMILES IDX 8 1 9 2 10 3 11 4 12 5 13 6 14 7 15 8 16 9 7 10 3 11 5 12
REMARK SMILES IDX 24 13 6 14 22 15 4 16 23 17 2 18 1 19 17 20 18 21 19 22
REMARK SMILES IDX 20 23 21 24
REMARK H PARENT
ROOT
ATOM      1  C   UNL     1      -0.132   0.448   0.000  1.00  0.00    -0.019 C 
ATOM      2  C   UNL     1      -0.166  -1.052   0.000  1.00  0.00     0.012 C 
ATOM      3  C   UNL     1       0.413   1.846   0.000  1.00  0.00     0.008 C 
ATOM      4  C   UNL     1      -0.525   3.016   0.000  1.00  0.00     0.001 C 
ATOM      5  C   UNL     1      -2.008   2.789   0.000  1.00  0.00     0.007 C 
ATOM      6  C   UNL     1      -2.553   1.391   0.000  1.00  0.00    -0.031 C 
ATOM      7  C   UNL     1      -3.542   0.264   0.000  1.00  0.00     0.011 C 
ATOM      8  C   UNL     1      -3.834   2.171   0.000  1.00  0.00     0.011 C 
ATOM      9  C   UNL     1      -1.615   0.221   0.000  1.00  0.00     0.012 C 
ENDROOT
BRANCH   1  10
ATOM     10  C   UNL     1       1.339   0.154   0.000  1.00  0.00     0.062 C 
ATOM     11  C   UNL     1       4.281  -0.433   0.000  1.00  0.00    -0.008 C 
ATOM     12  C   UNL     1       3.291  -1.560   0.000  1.00  0.00     0.012 C 
ATOM     13  C   UNL     1       3.800   0.988   0.000  1.00  0.00     0.086 C 
ATOM     14  C   UNL     1       1.820  -1.266   0.000  1.00  0.00     0.013 C 
ATOM     15  C   UNL     1       2.329   1.281   0.000  1.00  0.00     0.137 C 
ATOM     16  C   UNL     1       5.597   0.287   0.000  1.00  0.00     0.016 C 
ATOM     17  O   UNL     1       1.848   2.702   0.000  1.00  0.00    -0.299 OA
BRANCH  11  18
ATOM     18  C   UNL     1       5.219  -1.603   0.000  1.00  0.00    -0.028 C 
ATOM     19  C   UNL     1       4.674  -3.001   0.000  1.00  0.00     0.004 C 
ENDBRANCH  11  18
ENDBRANCH   1  10
BRANCH   9  20
ATOM     20  C   UNL     1      -2.159  -1.177   0.000  1.00  0.00     0.127 C 
BRANCH  20  21
ATOM     21  C   UNL     1      -3.642  -1.404   0.000  1.00  0.00     0.305 C 
ATOM     22  O   UNL     1      -4.580  -0.233   0.000  1.00  0.00    -0.252 OA
BRANCH  21  23
ATOM     23  O   UNL     1      -4.187  -2.801   0.000  1.00  0.00    -0.469 OA
ATOM     24  C   UNL     1      -5.669  -3.029   0.000  1.00  0.00     0.282 C 
ENDBRANCH  21  23
ENDBRANCH  20  21
ENDBRANCH   9  20
TORSDOF 5
