REMARK SMILES Oc1ccc(/C=C/c2cc(O)c3c(c2)O[C@@H](c2ccc(O)cc2)[C@@H]3c2cc(O)cc(O)c2)cc1
REMARK SMILES IDX 7 1 6 2 5 3 2 4 3 5 34 6 4 7 33 8 1 9 8 11 9 12 14 13 10 14
REMARK SMILES IDX 13 15 12 16 15 17 24 18 16 19 11 20 25 22 26 23 32 24 27 25
REMARK SMILES IDX 30 26 29 27 28 28 31 30 17 32 18 33 23 34 19 35 22 36 20 37
REMARK SMILES IDX 21 38
REMARK H PARENT 1 10 11 21 28 29 31 31 21 39
ROOT
ATOM      1  C   UNL     1      -4.066   0.786   0.000  1.00  0.00     0.009 C 
ENDROOT
BRANCH   1   2
ATOM      2  C   UNL     1      -5.054  -0.343   0.000  1.00  0.00     0.009 C 
BRANCH   2   3
ATOM      3  C   UNL     1      -6.525  -0.053   0.000  1.00  0.00    -0.025 A 
ATOM      4  C   UNL     1      -9.468   0.529   0.000  1.00  0.00     0.115 A 
ATOM      5  C   UNL     1      -8.481   1.658   0.000  1.00  0.00     0.047 A 
ATOM      6  C   UNL     1      -8.984  -0.891   0.000  1.00  0.00     0.047 A 
ATOM      7  C   UNL     1      -7.009   1.367   0.000  1.00  0.00     0.012 A 
ATOM      8  C   UNL     1      -7.513  -1.182   0.000  1.00  0.00     0.012 A 
BRANCH   4   9
ATOM      9  O   UNL     1     -10.940   0.820   0.000  1.00  0.00    -0.508 OA
ATOM     10  H   UNL     1       0.000   0.000   0.000  1.00  0.00     0.293 HD
ENDBRANCH   4   9
ENDBRANCH   2   3
ENDBRANCH   1   2
BRANCH   1  11
ATOM     11  C   UNL     1      -2.595   0.495   0.000  1.00  0.00    -0.018 A 
ATOM     12  C   UNL     1      -2.111  -0.925   0.000  1.00  0.00     0.054 A 
ATOM     13  C   UNL     1      -1.607   1.624   0.000  1.00  0.00     0.055 A 
ATOM     14  C   UNL     1      -0.639  -1.216   0.000  1.00  0.00     0.123 A 
ATOM     15  C   UNL     1      -0.135   1.333   0.000  1.00  0.00     0.128 A 
ATOM     16  C   UNL     1       0.349  -0.087   0.000  1.00  0.00     0.047 A 
ATOM     17  O   UNL     1       1.065   2.232   0.000  1.00  0.00    -0.484 OA
ATOM     18  C   UNL     1       1.849  -0.065   0.000  1.00  0.00     0.103 C 
ATOM     19  C   UNL     1       2.291   1.368   0.000  1.00  0.00     0.215 C 
BRANCH  14  20
ATOM     20  O   UNL     1      -0.155  -2.635   0.000  1.00  0.00    -0.507 OA
ATOM     21  H   UNL     1       0.000   0.000   0.000  1.00  0.00     0.293 HD
ENDBRANCH  14  20
BRANCH  18  22
ATOM     22  C   UNL     1       2.748  -1.266   0.000  1.00  0.00    -0.029 A 
ATOM     23  C   UNL     1       2.157  -2.645   0.000  1.00  0.00     0.051 A 
ATOM     24  C   UNL     1       4.237  -1.088   0.000  1.00  0.00     0.051 A 
ATOM     25  C   UNL     1       3.056  -3.845   0.000  1.00  0.00     0.119 A 
ATOM     26  C   UNL     1       5.136  -2.288   0.000  1.00  0.00     0.119 A 
ATOM     27  C   UNL     1       4.546  -3.667   0.000  1.00  0.00     0.092 A 
BRANCH  25  28
ATOM     28  O   UNL     1       2.466  -5.224   0.000  1.00  0.00    -0.508 OA
ATOM     29  H   UNL     1       0.000   0.000   0.000  1.00  0.00     0.293 HD
ENDBRANCH  25  28
BRANCH  26  30
ATOM     30  O   UNL     1       6.625  -2.110   0.000  1.00  0.00    -0.508 OA
ATOM     31  H   UNL     1       0.000   0.000   0.000  1.00  0.00     0.293 HD
ENDBRANCH  26  30
ENDBRANCH  18  22
BRANCH  19  32
ATOM     32  C   UNL     1       3.711   1.852   0.000  1.00  0.00    -0.006 A 
ATOM     33  C   UNL     1       4.840   0.864   0.000  1.00  0.00     0.011 A 
ATOM     34  C   UNL     1       4.002   3.324   0.000  1.00  0.00     0.011 A 
ATOM     35  C   UNL     1       6.260   1.348   0.000  1.00  0.00     0.046 A 
ATOM     36  C   UNL     1       5.422   3.808   0.000  1.00  0.00     0.046 A 
ATOM     37  C   UNL     1       6.551   2.820   0.000  1.00  0.00     0.115 A 
BRANCH  37  38
ATOM     38  O   UNL     1       7.971   3.304   0.000  1.00  0.00    -0.508 OA
ATOM     39  H   UNL     1       0.000   0.000   0.000  1.00  0.00     0.293 HD
ENDBRANCH  37  38
ENDBRANCH  19  32
ENDBRANCH   1  11
TORSDOF 10
