REMARK SMILES C=C[C@@]1(C)CCC2[C@@](O)(CCC3C(C)(C)C(=O)CC[C@@]32C)C1
REMARK SMILES IDX 3 1 4 2 5 3 6 4 7 5 8 6 10 7 11 8 12 9 13 10 14 11 15 12
REMARK SMILES IDX 16 13 17 14 18 15 19 16 20 17 21 18 22 19 2 20 1 21 9 22
REMARK H PARENT 9 23
ROOT
ATOM      1  C   UNL     1      -3.575  -0.124   0.000  1.00  0.00    -0.012 C 
ATOM      2  C   UNL     1      -4.572  -1.244   0.000  1.00  0.00     0.016 C 
ATOM      3  C   UNL     1      -3.020   1.269   0.000  1.00  0.00     0.011 C 
ATOM      4  C   UNL     1      -1.536   1.486   0.000  1.00  0.00     0.008 C 
ATOM      5  C   UNL     1      -0.606   0.309   0.000  1.00  0.00     0.027 C 
ATOM      6  C   UNL     1      -1.161  -1.085   0.000  1.00  0.00     0.069 C 
ATOM      7  C   UNL     1      -0.231  -2.262   0.000  1.00  0.00     0.036 C 
ATOM      8  C   UNL     1       1.253  -2.046   0.000  1.00  0.00     0.008 C 
ATOM      9  C   UNL     1       1.808  -0.652   0.000  1.00  0.00     0.008 C 
ATOM     10  C   UNL     1       3.292  -0.436   0.000  1.00  0.00     0.027 C 
ATOM     11  C   UNL     1       4.761  -0.740   0.000  1.00  0.00     0.020 C 
ATOM     12  C   UNL     1       3.248  -1.935   0.000  1.00  0.00     0.020 C 
ATOM     13  C   UNL     1       3.847   0.958   0.000  1.00  0.00     0.138 C 
ATOM     14  O   UNL     1       5.331   1.174   0.000  1.00  0.00    -0.299 OA
ATOM     15  C   UNL     1       2.917   2.135   0.000  1.00  0.00     0.077 C 
ATOM     16  C   UNL     1       1.433   1.919   0.000  1.00  0.00     0.015 C 
ATOM     17  C   UNL     1       0.878   0.525   0.000  1.00  0.00    -0.023 C 
ATOM     18  C   UNL     1      -0.051   1.702   0.000  1.00  0.00     0.012 C 
ATOM     19  C   UNL     1      -2.645  -1.301   0.000  1.00  0.00     0.046 C 
ENDROOT
BRANCH   1  20
ATOM     20  C   UNL     1      -4.851   0.664   0.000  1.00  0.00    -0.028 C 
ATOM     21  C   UNL     1      -4.806   2.163   0.000  1.00  0.00     0.004 C 
ENDBRANCH   1  20
BRANCH   6  22
ATOM     22  O   UNL     1      -1.715  -2.479   0.000  1.00  0.00    -0.390 OA
ATOM     23  H   UNL     1       0.000   0.000   0.000  1.00  0.00     0.211 HD
ENDBRANCH   6  22
TORSDOF 2
