REMARK SMILES CC1(C)CC[C@]2(C)CC[C@]3(C)C(=CC[C@@H]4[C@@]5(C)CC[C@H](O)C(C)(C)[C@@H]5CC[C@]43C)[C@@H]2C1
REMARK SMILES IDX 1 1 2 2 3 3 4 4 5 5 6 6 7 7 8 8 9 9 10 10 11 11 12 12 13 13
REMARK SMILES IDX 14 14 15 15 16 16 17 17 18 18 19 19 20 20 22 21 23 22 24 23
REMARK SMILES IDX 25 24 26 25 27 26 28 27 29 28 30 29 31 30 21 31
REMARK H PARENT 21 32
ROOT
ATOM      1  C   UNL     1      -5.403  -2.810   0.000  1.00  0.00     0.011 C 
ATOM      2  C   UNL     1      -5.544  -1.317   0.000  1.00  0.00    -0.035 C 
ATOM      3  C   UNL     1      -6.990  -1.714   0.000  1.00  0.00     0.011 C 
ATOM      4  C   UNL     1      -6.186   0.038   0.000  1.00  0.00     0.007 C 
ATOM      5  C   UNL     1      -5.334   1.273   0.000  1.00  0.00     0.008 C 
ATOM      6  C   UNL     1      -3.839   1.152   0.000  1.00  0.00    -0.026 C 
ATOM      7  C   UNL     1      -4.482   2.507   0.000  1.00  0.00     0.012 C 
ATOM      8  C   UNL     1      -2.987   2.386   0.000  1.00  0.00     0.008 C 
ATOM      9  C   UNL     1      -1.491   2.265   0.000  1.00  0.00     0.012 C 
ATOM     10  C   UNL     1      -0.849   0.909   0.000  1.00  0.00    -0.006 C 
ATOM     11  C   UNL     1      -0.206  -0.446   0.000  1.00  0.00     0.017 C 
ATOM     12  C   UNL     1      -1.701  -0.325   0.000  1.00  0.00    -0.064 C 
ATOM     13  C   UNL     1      -1.058  -1.680   0.000  1.00  0.00    -0.027 C 
ATOM     14  C   UNL     1       0.437  -1.801   0.000  1.00  0.00     0.032 C 
ATOM     15  C   UNL     1       1.289  -0.567   0.000  1.00  0.00     0.006 C 
ATOM     16  C   UNL     1       2.784  -0.688   0.000  1.00  0.00    -0.025 C 
ATOM     17  C   UNL     1       1.932  -1.922   0.000  1.00  0.00     0.012 C 
ATOM     18  C   UNL     1       3.427  -2.043   0.000  1.00  0.00     0.010 C 
ATOM     19  C   UNL     1       4.922  -2.164   0.000  1.00  0.00     0.033 C 
ATOM     20  C   UNL     1       5.774  -0.930   0.000  1.00  0.00     0.120 C 
ATOM     21  C   UNL     1       5.132   0.425   0.000  1.00  0.00    -0.006 C 
ATOM     22  C   UNL     1       4.991   1.919   0.000  1.00  0.00     0.014 C 
ATOM     23  C   UNL     1       6.578   0.823   0.000  1.00  0.00     0.014 C 
ATOM     24  C   UNL     1       3.637   0.546   0.000  1.00  0.00     0.003 C 
ATOM     25  C   UNL     1       2.994   1.902   0.000  1.00  0.00     0.005 C 
ATOM     26  C   UNL     1       1.499   2.023   0.000  1.00  0.00     0.008 C 
ATOM     27  C   UNL     1       0.646   0.788   0.000  1.00  0.00    -0.020 C 
ATOM     28  C   UNL     1       0.004   2.144   0.000  1.00  0.00     0.012 C 
ATOM     29  C   UNL     1      -3.196  -0.204   0.000  1.00  0.00     0.022 C 
ATOM     30  C   UNL     1      -4.049  -1.438   0.000  1.00  0.00     0.015 C 
ENDROOT
BRANCH  20  31
ATOM     31  O   UNL     1       7.269  -1.051   0.000  1.00  0.00    -0.393 OA
ATOM     32  H   UNL     1       0.000   0.000   0.000  1.00  0.00     0.210 HD
ENDBRANCH  20  31
TORSDOF 1
