REMARK SMILES CC(=O)O[C@@H]1CC[C@]2(C)[C@H]3CC[C@@H]4[C@@H]([C@]5(C)CCC(=O)O5)CC[C@@]4(C)[C@]3(C)CC[C@H]2C1(C)C
REMARK SMILES IDX 5 1 6 2 7 3 8 4 9 5 10 6 11 7 12 8 13 9 14 10 22 11 23 12
REMARK SMILES IDX 24 13 25 14 26 15 27 16 28 17 29 18 30 19 31 20 32 21 33 22
REMARK SMILES IDX 4 23 2 24 1 25 3 26 15 27 17 28 21 29 18 30 19 31 16 32
REMARK SMILES IDX 20 33
REMARK H PARENT
ROOT
ATOM      1  C   UNL     1      -4.933   0.165   0.000  1.00  0.00     0.182 C 
ATOM      2  C   UNL     1      -4.200   1.474   0.000  1.00  0.00     0.046 C 
ATOM      3  C   UNL     1      -2.700   1.494   0.000  1.00  0.00     0.011 C 
ATOM      4  C   UNL     1      -1.933   0.204   0.000  1.00  0.00    -0.026 C 
ATOM      5  C   UNL     1      -1.200   1.513   0.000  1.00  0.00     0.012 C 
ATOM      6  C   UNL     1      -0.433   0.224   0.000  1.00  0.00     0.002 C 
ATOM      7  C   UNL     1       0.300   1.532   0.000  1.00  0.00     0.005 C 
ATOM      8  C   UNL     1       1.800   1.552   0.000  1.00  0.00     0.005 C 
ATOM      9  C   UNL     1       2.567   0.263   0.000  1.00  0.00     0.002 C 
ATOM     10  C   UNL     1       4.038  -0.030   0.000  1.00  0.00     0.037 C 
ATOM     11  C   UNL     1       4.214  -1.520   0.000  1.00  0.00     0.008 C 
ATOM     12  C   UNL     1       2.852  -2.147   0.000  1.00  0.00     0.008 C 
ATOM     13  C   UNL     1       1.834  -1.046   0.000  1.00  0.00    -0.024 C 
ATOM     14  C   UNL     1       1.241  -2.424   0.000  1.00  0.00     0.012 C 
ATOM     15  C   UNL     1       0.334  -1.065   0.000  1.00  0.00    -0.024 C 
ATOM     16  C   UNL     1      -1.166  -1.085   0.000  1.00  0.00     0.012 C 
ATOM     17  C   UNL     1      -0.399  -2.374   0.000  1.00  0.00     0.008 C 
ATOM     18  C   UNL     1      -1.899  -2.393   0.000  1.00  0.00     0.005 C 
ATOM     19  C   UNL     1      -2.666  -1.104   0.000  1.00  0.00     0.005 C 
ATOM     20  C   UNL     1      -4.166  -1.124   0.000  1.00  0.00     0.005 C 
ATOM     21  C   UNL     1      -3.886  -2.598   0.000  1.00  0.00     0.015 C 
ATOM     22  C   UNL     1      -5.569  -1.655   0.000  1.00  0.00     0.015 C 
ENDROOT
BRANCH   1  23
ATOM     23  O   UNL     1      -6.433   0.146   0.000  1.00  0.00    -0.462 OA
BRANCH  23  24
ATOM     24  C   UNL     1      -7.199   1.435   0.000  1.00  0.00     0.302 C 
ATOM     25  C   UNL     1      -8.699   1.415   0.000  1.00  0.00     0.139 C 
ATOM     26  O   UNL     1      -6.466   2.744   0.000  1.00  0.00    -0.253 OA
ENDBRANCH  23  24
ENDBRANCH   1  23
BRANCH  10  27
ATOM     27  C   UNL     1       5.139   0.988   0.000  1.00  0.00     0.113 C 
ATOM     28  C   UNL     1       6.005   2.213   0.000  1.00  0.00     0.060 C 
ATOM     29  O   UNL     1       6.037  -0.214   0.000  1.00  0.00    -0.459 OA
ATOM     30  C   UNL     1       7.438   1.768   0.000  1.00  0.00     0.127 C 
ATOM     31  C   UNL     1       7.457   0.268   0.000  1.00  0.00     0.306 C 
ATOM     32  C   UNL     1       4.012   1.977   0.000  1.00  0.00     0.057 C 
ATOM     33  O   UNL     1       8.682  -0.598   0.000  1.00  0.00    -0.252 OA
ENDBRANCH  10  27
TORSDOF 3
