REMARK SMILES COc1c(C(=O)CCc2ccc3c(c2)OCO3)ccc2occc12
REMARK SMILES IDX 5 1 6 2 4 3 3 4 24 5 18 6 20 7 23 8 19 9 21 10 22 11 2 12
REMARK SMILES IDX 1 13 7 14 8 15 9 16 10 17 14 18 11 19 13 20 12 21 15 22
REMARK SMILES IDX 17 23 16 24
REMARK H PARENT
ROOT
ATOM      1  C   UNL     1      -1.121   1.872   0.000  1.00  0.00     0.166 C 
ATOM      2  O   UNL     1      -0.951   3.362   0.000  1.00  0.00    -0.294 OA
ENDROOT
BRANCH   1   3
ATOM      3  C   UNL     1      -2.496   1.274   0.000  1.00  0.00     0.060 A 
ATOM      4  C   UNL     1      -2.666  -0.216   0.000  1.00  0.00     0.140 A 
ATOM      5  C   UNL     1      -4.042  -0.814   0.000  1.00  0.00     0.063 A 
ATOM      6  C   UNL     1      -3.702   2.167   0.000  1.00  0.00     0.019 A 
ATOM      7  C   UNL     1      -5.247   0.078   0.000  1.00  0.00     0.137 A 
ATOM      8  C   UNL     1      -4.518  -2.237   0.000  1.00  0.00     0.054 A 
ATOM      9  C   UNL     1      -5.077   1.569   0.000  1.00  0.00     0.049 A 
ATOM     10  O   UNL     1      -6.469  -0.793   0.000  1.00  0.00    -0.464 OA
ATOM     11  C   UNL     1      -6.018  -2.223   0.000  1.00  0.00     0.196 A 
BRANCH   4  12
ATOM     12  O   UNL     1      -1.460  -1.109   0.000  1.00  0.00    -0.495 OA
ATOM     13  C   UNL     1      -1.630  -2.599   0.000  1.00  0.00     0.278 C 
ENDBRANCH   4  12
ENDBRANCH   1   3
BRANCH   1  14
ATOM     14  C   UNL     1       0.085   0.980   0.000  1.00  0.00     0.086 C 
BRANCH  14  15
ATOM     15  C   UNL     1       1.461   1.578   0.000  1.00  0.00     0.044 C 
BRANCH  15  16
ATOM     16  C   UNL     1       2.667   0.685   0.000  1.00  0.00    -0.044 A 
ATOM     17  C   UNL     1       2.497  -0.805   0.000  1.00  0.00     0.008 A 
ATOM     18  C   UNL     1       4.042   1.283   0.000  1.00  0.00     0.054 A 
ATOM     19  C   UNL     1       3.702  -1.697   0.000  1.00  0.00     0.051 A 
ATOM     20  C   UNL     1       5.248   0.391   0.000  1.00  0.00     0.166 A 
ATOM     21  C   UNL     1       5.078  -1.099   0.000  1.00  0.00     0.165 A 
ATOM     22  O   UNL     1       6.718   0.690   0.000  1.00  0.00    -0.454 OA
ATOM     23  O   UNL     1       6.443  -1.722   0.000  1.00  0.00    -0.454 OA
ATOM     24  C   UNL     1       7.456  -0.616   0.000  1.00  0.00     0.468 C 
ENDBRANCH  15  16
ENDBRANCH  14  15
ENDBRANCH   1  14
TORSDOF 5
