REMARK SMILES C[C@@H]1CC[C@]2(C(=O)O)CC[C@]3(C)C(=CC[C@@H]4[C@@]5(C)C[C@@H](O)[C@H](O)C(CO)(CO)[C@@H]5CC[C@]43C)[C@@H]2[C@]1(C)O
REMARK SMILES IDX 1 1 2 2 3 3 4 4 5 5 9 6 10 7 11 8 12 9 13 10 14 11 15 12
REMARK SMILES IDX 16 13 17 14 18 15 19 16 20 17 22 18 24 19 29 20 30 21 31 22
REMARK SMILES IDX 32 23 33 24 34 25 35 26 36 27 37 28 6 30 7 31 8 32 25 34
REMARK SMILES IDX 26 35 27 37 28 38 21 40 23 42
REMARK H PARENT 37 29 8 33 26 36 28 39 21 41 23 43
ROOT
ATOM      1  C   UNL     1      -6.450  -2.894   0.000  1.00  0.00     0.011 C 
ATOM      2  C   UNL     1      -5.639  -1.632   0.000  1.00  0.00     0.018 C 
ATOM      3  C   UNL     1      -6.327  -0.299   0.000  1.00  0.00     0.007 C 
ATOM      4  C   UNL     1      -5.516   0.963   0.000  1.00  0.00     0.020 C 
ATOM      5  C   UNL     1      -4.018   0.892   0.000  1.00  0.00     0.077 C 
ATOM      6  C   UNL     1      -3.207   2.154   0.000  1.00  0.00     0.020 C 
ATOM      7  C   UNL     1      -1.708   2.082   0.000  1.00  0.00     0.013 C 
ATOM      8  C   UNL     1      -1.021   0.749   0.000  1.00  0.00    -0.006 C 
ATOM      9  C   UNL     1      -0.333  -0.584   0.000  1.00  0.00     0.017 C 
ATOM     10  C   UNL     1      -1.832  -0.513   0.000  1.00  0.00    -0.061 C 
ATOM     11  C   UNL     1      -1.144  -1.846   0.000  1.00  0.00    -0.026 C 
ATOM     12  C   UNL     1       0.354  -1.917   0.000  1.00  0.00     0.032 C 
ATOM     13  C   UNL     1       1.165  -0.655   0.000  1.00  0.00     0.006 C 
ATOM     14  C   UNL     1       2.663  -0.726   0.000  1.00  0.00    -0.023 C 
ATOM     15  C   UNL     1       1.852  -1.988   0.000  1.00  0.00     0.012 C 
ATOM     16  C   UNL     1       3.351  -2.059   0.000  1.00  0.00     0.042 C 
ATOM     17  C   UNL     1       4.849  -2.131   0.000  1.00  0.00     0.144 C 
ATOM     18  C   UNL     1       5.660  -0.869   0.000  1.00  0.00     0.154 C 
ATOM     19  C   UNL     1       4.972   0.465   0.000  1.00  0.00     0.048 C 
ATOM     20  C   UNL     1       3.474   0.536   0.000  1.00  0.00     0.009 C 
ATOM     21  C   UNL     1       2.787   1.869   0.000  1.00  0.00     0.005 C 
ATOM     22  C   UNL     1       1.288   1.940   0.000  1.00  0.00     0.008 C 
ATOM     23  C   UNL     1       0.477   0.678   0.000  1.00  0.00    -0.020 C 
ATOM     24  C   UNL     1      -0.210   2.011   0.000  1.00  0.00     0.012 C 
ATOM     25  C   UNL     1      -3.330  -0.442   0.000  1.00  0.00     0.064 C 
ATOM     26  C   UNL     1      -4.141  -1.704   0.000  1.00  0.00     0.072 C 
ATOM     27  C   UNL     1      -2.757  -2.283   0.000  1.00  0.00     0.043 C 
ENDROOT
BRANCH  26  28
ATOM     28  O   UNL     1      -4.471  -3.167   0.000  1.00  0.00    -0.389 OA
ATOM     29  H   UNL     1       0.000   0.000   0.000  1.00  0.00     0.211 HD
ENDBRANCH  26  28
BRANCH   5  30
ATOM     30  C   UNL     1      -4.705   2.225   0.000  1.00  0.00     0.310 C 
ATOM     31  O   UNL     1      -6.203   2.296   0.000  1.00  0.00    -0.252 OA
BRANCH  30  32
ATOM     32  O   UNL     1      -3.894   3.487   0.000  1.00  0.00    -0.481 OA
ATOM     33  H   UNL     1       0.000   0.000   0.000  1.00  0.00     0.296 HD
ENDBRANCH  30  32
ENDBRANCH   5  30
BRANCH  19  34
ATOM     34  C   UNL     1       4.782   1.952   0.000  1.00  0.00     0.168 C 
BRANCH  34  35
ATOM     35  O   UNL     1       3.399   2.532   0.000  1.00  0.00    -0.396 OA
ATOM     36  H   UNL     1       0.000   0.000   0.000  1.00  0.00     0.210 HD
ENDBRANCH  34  35
ENDBRANCH  19  34
BRANCH  19  37
ATOM     37  C   UNL     1       6.405   0.910   0.000  1.00  0.00     0.168 C 
BRANCH  37  38
ATOM     38  O   UNL     1       6.735   2.373   0.000  1.00  0.00    -0.396 OA
ATOM     39  H   UNL     1       0.000   0.000   0.000  1.00  0.00     0.210 HD
ENDBRANCH  37  38
ENDBRANCH  19  37
BRANCH  17  40
ATOM     40  O   UNL     1       5.537  -3.464   0.000  1.00  0.00    -0.390 OA
ATOM     41  H   UNL     1       0.000   0.000   0.000  1.00  0.00     0.211 HD
ENDBRANCH  17  40
BRANCH  18  42
ATOM     42  O   UNL     1       7.158  -0.940   0.000  1.00  0.00    -0.390 OA
ATOM     43  H   UNL     1       0.000   0.000   0.000  1.00  0.00     0.211 HD
ENDBRANCH  18  42
TORSDOF 9
