REMARK SMILES Cc1ccc(C=O)c2c(O)c(O)c(C(C)(C)O)cc12
REMARK SMILES IDX 1 1 2 2 3 3 4 4 5 5 8 6 9 7 11 8 13 9 18 10 19 11 6 12 7 13
REMARK SMILES IDX 14 14 15 15 16 16 17 17 10 19 12 21
REMARK H PARENT 17 18 10 20 12 22
ROOT
ATOM      1  C   UNL     1      -0.694  -3.713   0.000  1.00  0.00     0.045 C 
ATOM      2  C   UNL     1      -1.323  -2.351   0.000  1.00  0.00    -0.043 A 
ATOM      3  C   UNL     1      -2.817  -2.216   0.000  1.00  0.00     0.005 A 
ATOM      4  C   UNL     1      -3.447  -0.854   0.000  1.00  0.00     0.012 A 
ATOM      5  C   UNL     1      -2.582   0.372   0.000  1.00  0.00     0.026 A 
ATOM      6  C   UNL     1      -1.088   0.236   0.000  1.00  0.00     0.038 A 
ATOM      7  C   UNL     1      -0.224   1.462   0.000  1.00  0.00     0.166 A 
ATOM      8  C   UNL     1       1.270   1.326   0.000  1.00  0.00     0.164 A 
ATOM      9  C   UNL     1       1.899  -0.035   0.000  1.00  0.00     0.029 A 
ATOM     10  C   UNL     1       1.035  -1.261   0.000  1.00  0.00     0.019 A 
ATOM     11  C   UNL     1      -0.459  -1.125   0.000  1.00  0.00    -0.010 A 
ENDROOT
BRANCH   5  12
ATOM     12  C   UNL     1      -3.212   1.733   0.000  1.00  0.00     0.260 C 
ATOM     13  O   UNL     1      -4.705   1.869   0.000  1.00  0.00    -0.298 OA
ENDBRANCH   5  12
BRANCH   9  14
ATOM     14  C   UNL     1       3.393  -0.171   0.000  1.00  0.00     0.088 C 
ATOM     15  C   UNL     1       3.529   1.323   0.000  1.00  0.00     0.047 C 
ATOM     16  C   UNL     1       3.257  -1.665   0.000  1.00  0.00     0.047 C 
BRANCH  14  17
ATOM     17  O   UNL     1       4.887  -0.307   0.000  1.00  0.00    -0.386 OA
ATOM     18  H   UNL     1       0.000   0.000   0.000  1.00  0.00     0.211 HD
ENDBRANCH  14  17
ENDBRANCH   9  14
BRANCH   7  19
ATOM     19  O   UNL     1      -0.853   2.824   0.000  1.00  0.00    -0.504 OA
ATOM     20  H   UNL     1       0.000   0.000   0.000  1.00  0.00     0.293 HD
ENDBRANCH   7  19
BRANCH   8  21
ATOM     21  O   UNL     1       2.134   2.552   0.000  1.00  0.00    -0.504 OA
ATOM     22  H   UNL     1       0.000   0.000   0.000  1.00  0.00     0.293 HD
ENDBRANCH   8  21
TORSDOF 5
