REMARK SMILES CC(C)CNC(=O)C=CC=Cc1ccc2c(c1)OCO2
REMARK SMILES IDX 8 1 6 2 5 3 7 5 4 6 2 7 1 8 3 9 9 10 10 11 11 12 12 13 13 14
REMARK SMILES IDX 17 15 14 16 16 17 15 18 18 19 20 20 19 21
REMARK H PARENT 5 4
ROOT
ATOM      1  C   UNL     1       2.467  -0.095   0.000  1.00  0.00     0.071 C 
ENDROOT
BRANCH   1   2
ATOM      2  C   UNL     1       3.825   0.543   0.000  1.00  0.00     0.243 C 
ATOM      3  N   UNL     1       5.056  -0.314   0.000  1.00  0.00    -0.352 N 
ATOM      4  H   UNL     1       0.000   0.000   0.000  1.00  0.00     0.163 HD
ATOM      5  O   UNL     1       3.951   2.038   0.000  1.00  0.00    -0.270 OA
BRANCH   3   6
ATOM      6  C   UNL     1       6.413   0.325   0.000  1.00  0.00     0.119 C 
BRANCH   6   7
ATOM      7  C   UNL     1       7.645  -0.532   0.000  1.00  0.00     0.002 C 
ATOM      8  C   UNL     1       9.002   0.106   0.000  1.00  0.00     0.009 C 
ATOM      9  C   UNL     1       7.519  -2.026   0.000  1.00  0.00     0.009 C 
ENDBRANCH   6   7
ENDBRANCH   3   6
ENDBRANCH   1   2
BRANCH   1  10
ATOM     10  C   UNL     1       1.236   0.761   0.000  1.00  0.00     0.006 C 
BRANCH  10  11
ATOM     11  C   UNL     1      -0.122   0.123   0.000  1.00  0.00     0.001 C 
BRANCH  11  12
ATOM     12  C   UNL     1      -1.353   0.980   0.000  1.00  0.00     0.008 C 
BRANCH  12  13
ATOM     13  C   UNL     1      -2.711   0.342   0.000  1.00  0.00    -0.022 A 
ATOM     14  C   UNL     1      -2.837  -1.153   0.000  1.00  0.00     0.012 A 
ATOM     15  C   UNL     1      -3.942   1.198   0.000  1.00  0.00     0.058 A 
ATOM     16  C   UNL     1      -4.194  -1.791   0.000  1.00  0.00     0.051 A 
ATOM     17  C   UNL     1      -5.300   0.560   0.000  1.00  0.00     0.166 A 
ATOM     18  C   UNL     1      -5.426  -0.935   0.000  1.00  0.00     0.165 A 
ATOM     19  O   UNL     1      -6.682   1.142   0.000  1.00  0.00    -0.454 OA
ATOM     20  O   UNL     1      -6.886  -1.277   0.000  1.00  0.00    -0.454 OA
ATOM     21  C   UNL     1      -7.663   0.006   0.000  1.00  0.00     0.468 C 
ENDBRANCH  12  13
ENDBRANCH  11  12
ENDBRANCH  10  11
ENDBRANCH   1  10
TORSDOF 7
