REMARK SMILES COc1cc(OC)c2c(=O)cc(-c3cc(OC)c(OC)c(OC)c3)oc2c1
REMARK SMILES IDX 3 1 4 2 5 3 8 4 9 5 10 6 11 7 12 8 25 9 26 10 27 11 2 12
REMARK SMILES IDX 1 13 6 14 7 15 13 16 14 17 24 18 15 19 21 20 18 21 16 22
REMARK SMILES IDX 17 23 22 24 23 25 19 26 20 27
REMARK H PARENT
ROOT
ATOM      1  C   UNL     1      -4.586  -1.613   0.000  1.00  0.00     0.126 A 
ATOM      2  C   UNL     1      -5.124  -0.212   0.000  1.00  0.00     0.093 A 
ATOM      3  C   UNL     1      -4.180   0.953   0.000  1.00  0.00     0.137 A 
ATOM      4  C   UNL     1      -2.699   0.719   0.000  1.00  0.00     0.107 A 
ATOM      5  C   UNL     1      -1.755   1.885   0.000  1.00  0.00     0.197 A 
ATOM      6  O   UNL     1      -2.293   3.285   0.000  1.00  0.00    -0.289 OA
ATOM      7  C   UNL     1      -0.273   1.651   0.000  1.00  0.00     0.100 A 
ATOM      8  C   UNL     1       0.265   0.250   0.000  1.00  0.00     0.138 A 
ATOM      9  O   UNL     1      -0.679  -0.915   0.000  1.00  0.00    -0.456 OA
ATOM     10  C   UNL     1      -2.161  -0.681   0.000  1.00  0.00     0.146 A 
ATOM     11  C   UNL     1      -3.104  -1.847   0.000  1.00  0.00     0.094 A 
ENDROOT
BRANCH   1  12
ATOM     12  O   UNL     1      -5.530  -2.779   0.000  1.00  0.00    -0.496 OA
ATOM     13  C   UNL     1      -7.011  -2.544   0.000  1.00  0.00     0.278 C 
ENDBRANCH   1  12
BRANCH   3  14
ATOM     14  O   UNL     1      -4.718   2.354   0.000  1.00  0.00    -0.496 OA
ATOM     15  C   UNL     1      -6.200   2.588   0.000  1.00  0.00     0.278 C 
ENDBRANCH   3  14
BRANCH   8  16
ATOM     16  C   UNL     1       1.746   0.016   0.000  1.00  0.00     0.025 A 
ATOM     17  C   UNL     1       2.284  -1.384   0.000  1.00  0.00     0.062 A 
ATOM     18  C   UNL     1       2.690   1.182   0.000  1.00  0.00     0.062 A 
ATOM     19  C   UNL     1       3.766  -1.619   0.000  1.00  0.00     0.165 A 
ATOM     20  C   UNL     1       4.171   0.948   0.000  1.00  0.00     0.165 A 
ATOM     21  C   UNL     1       4.709  -0.453   0.000  1.00  0.00     0.203 A 
BRANCH  19  22
ATOM     22  O   UNL     1       4.303  -3.019   0.000  1.00  0.00    -0.493 OA
ATOM     23  C   UNL     1       3.360  -4.185   0.000  1.00  0.00     0.278 C 
ENDBRANCH  19  22
BRANCH  20  24
ATOM     24  O   UNL     1       5.115   2.114   0.000  1.00  0.00    -0.493 OA
ATOM     25  C   UNL     1       4.577   3.514   0.000  1.00  0.00     0.278 C 
ENDBRANCH  20  24
BRANCH  21  26
ATOM     26  O   UNL     1       6.191  -0.687   0.000  1.00  0.00    -0.490 OA
ATOM     27  C   UNL     1       7.135   0.479   0.000  1.00  0.00     0.278 C 
ENDBRANCH  21  26
ENDBRANCH   8  16
TORSDOF 6
