REMARK SMILES COc1c2occc2cc2ccc(=O)oc12
REMARK SMILES IDX 3 1 4 2 5 3 6 4 7 5 8 6 9 7 10 8 16 9 15 10 13 11 14 12
REMARK SMILES IDX 12 13 11 14 2 15 1 16
REMARK H PARENT
ROOT
ATOM      1  C   UNL     1      -0.506  -0.976   0.000  1.00  0.00     0.206 A 
ATOM      2  C   UNL     1      -1.792  -0.205   0.000  1.00  0.00     0.179 A 
ATOM      3  O   UNL     1      -3.226  -0.644   0.000  1.00  0.00    -0.460 OA
ATOM      4  C   UNL     1      -4.088   0.584   0.000  1.00  0.00     0.196 A 
ATOM      5  C   UNL     1      -3.186   1.782   0.000  1.00  0.00     0.051 A 
ATOM      6  C   UNL     1      -1.767   1.295   0.000  1.00  0.00     0.025 A 
ATOM      7  C   UNL     1      -0.456   2.023   0.000  1.00  0.00     0.024 A 
ATOM      8  C   UNL     1       0.831   1.252   0.000  1.00  0.00     0.022 A 
ATOM      9  C   UNL     1       0.806  -0.248   0.000  1.00  0.00     0.184 A 
ATOM     10  O   UNL     1       2.092  -1.019   0.000  1.00  0.00    -0.419 OA
ATOM     11  C   UNL     1       3.403  -0.291   0.000  1.00  0.00     0.336 A 
ATOM     12  O   UNL     1       4.690  -1.062   0.000  1.00  0.00    -0.246 OA
ATOM     13  C   UNL     1       3.428   1.209   0.000  1.00  0.00     0.094 A 
ATOM     14  C   UNL     1       2.142   1.980   0.000  1.00  0.00     0.019 A 
ENDROOT
BRANCH   1  15
ATOM     15  O   UNL     1      -0.530  -2.476   0.000  1.00  0.00    -0.490 OA
ATOM     16  C   UNL     1      -1.842  -3.204   0.000  1.00  0.00     0.278 C 
ENDBRANCH   1  15
TORSDOF 1
