REMARK SMILES CC1CCN2C(=O)CNC(=O)[C@H]12
REMARK SMILES IDX 1 1 2 2 3 3 4 4 5 5 6 6 7 7 8 8 9 9 10 10 11 11 12 12
REMARK H PARENT 9 13
ROOT
ATOM      1  C   UNL     1       3.249   0.074   0.000  1.00  0.00     0.010 C 
ATOM      2  C   UNL     1       1.863   0.650   0.000  1.00  0.00     0.020 C 
ATOM      3  C   UNL     1       1.514   2.108   0.000  1.00  0.00     0.027 C 
ATOM      4  C   UNL     1       0.019   2.228   0.000  1.00  0.00     0.121 C 
ATOM      5  N   UNL     1      -0.556   0.842   0.000  1.00  0.00    -0.329 N 
ATOM      6  C   UNL     1      -1.970   0.343   0.000  1.00  0.00     0.242 C 
ATOM      7  O   UNL     1      -3.110   1.318   0.000  1.00  0.00    -0.273 OA
ATOM      8  C   UNL     1      -2.245  -1.132   0.000  1.00  0.00     0.216 C 
ATOM      9  N   UNL     1      -1.105  -2.107   0.000  1.00  0.00    -0.345 N 
ATOM     10  C   UNL     1       0.309  -1.608   0.000  1.00  0.00     0.243 C 
ATOM     11  O   UNL     1       1.449  -2.583   0.000  1.00  0.00    -0.273 OA
ATOM     12  C   UNL     1       0.584  -0.133   0.000  1.00  0.00     0.177 C 
ATOM     13  H   UNL     1       0.000   0.000   0.000  1.00  0.00     0.164 HD
ENDROOT
TORSDOF 0
