REMARK SMILES COc1cc2c(=O)c3ccccc3oc2c(O)c1OC
REMARK SMILES IDX 3 1 4 2 5 3 15 4 14 5 13 6 12 7 11 8 10 9 9 10 8 11 6 12
REMARK SMILES IDX 7 13 16 14 18 15 2 16 1 17 19 18 20 19 17 20
REMARK H PARENT 17 21
ROOT
ATOM      1  C   UNL     1      -2.664   0.635   0.000  1.00  0.00     0.165 A 
ATOM      2  C   UNL     1      -1.365   1.386   0.000  1.00  0.00     0.066 A 
ATOM      3  C   UNL     1      -0.066   0.637   0.000  1.00  0.00     0.073 A 
ATOM      4  C   UNL     1      -0.064  -0.863   0.000  1.00  0.00     0.184 A 
ATOM      5  O   UNL     1       1.236  -1.611   0.000  1.00  0.00    -0.452 OA
ATOM      6  C   UNL     1       2.534  -0.860   0.000  1.00  0.00     0.138 A 
ATOM      7  C   UNL     1       3.834  -1.609   0.000  1.00  0.00     0.048 A 
ATOM      8  C   UNL     1       5.132  -0.857   0.000  1.00  0.00     0.004 A 
ATOM      9  C   UNL     1       5.131   0.643   0.000  1.00  0.00     0.001 A 
ATOM     10  C   UNL     1       3.831   1.391   0.000  1.00  0.00     0.016 A 
ATOM     11  C   UNL     1       2.533   0.640   0.000  1.00  0.00     0.065 A 
ATOM     12  C   UNL     1       1.233   1.389   0.000  1.00  0.00     0.200 A 
ATOM     13  O   UNL     1       1.231   2.889   0.000  1.00  0.00    -0.288 OA
ATOM     14  C   UNL     1      -1.362  -1.614   0.000  1.00  0.00     0.206 A 
ATOM     15  C   UNL     1      -2.662  -0.865   0.000  1.00  0.00     0.207 A 
ENDROOT
BRANCH   1  16
ATOM     16  O   UNL     1      -3.963   1.383   0.000  1.00  0.00    -0.493 OA
ATOM     17  C   UNL     1      -3.965   2.884   0.000  1.00  0.00     0.278 C 
ENDBRANCH   1  16
BRANCH  15  18
ATOM     18  O   UNL     1      -3.960  -1.617   0.000  1.00  0.00    -0.490 OA
ATOM     19  C   UNL     1      -5.260  -0.868   0.000  1.00  0.00     0.278 C 
ENDBRANCH  15  18
BRANCH  14  20
ATOM     20  O   UNL     1      -1.361  -3.114   0.000  1.00  0.00    -0.502 OA
ATOM     21  H   UNL     1       0.000   0.000   0.000  1.00  0.00     0.293 HD
ENDBRANCH  14  20
TORSDOF 3
