REMARK SMILES C=C/C(C)=C\C[C@]1(C)[C@H](C)[C@@H](OC(=O)CCC)C[C@@]23C(=C[C@H](O)C[C@@H]12)[C@@H](OC(C)=O)O[C@H]3OC(C)=O
REMARK SMILES IDX 7 1 8 2 9 3 10 4 11 5 18 6 19 7 20 8 21 9 22 10 24 11 25 12
REMARK SMILES IDX 26 13 31 14 32 15 6 16 5 17 3 18 4 19 2 20 1 21 12 22 13 23
REMARK SMILES IDX 14 24 15 25 16 26 17 27 23 28 33 30 34 31 35 32 36 33 27 34
REMARK SMILES IDX 28 35 29 36 30 37
REMARK H PARENT 23 29
ROOT
ATOM      1  C   UNL     1       0.854  -1.468   0.000  1.00  0.00    -0.019 C 
ATOM      2  C   UNL     1       0.982  -2.962   0.000  1.00  0.00     0.012 C 
ATOM      3  C   UNL     1       1.245  -0.019   0.000  1.00  0.00     0.033 C 
ATOM      4  C   UNL     1       2.695   0.366   0.000  1.00  0.00     0.012 C 
ATOM      5  C   UNL     1       0.187   1.043   0.000  1.00  0.00     0.181 C 
ATOM      6  C   UNL     1      -1.263   0.658   0.000  1.00  0.00     0.064 C 
ATOM      7  C   UNL     1      -1.654  -0.790   0.000  1.00  0.00     0.067 C 
ATOM      8  C   UNL     1      -3.103  -1.176   0.000  1.00  0.00     0.009 C 
ATOM      9  C   UNL     1      -3.494  -2.624   0.000  1.00  0.00     0.011 C 
ATOM     10  C   UNL     1      -2.436  -3.687   0.000  1.00  0.00     0.137 C 
ATOM     11  C   UNL     1      -0.986  -3.301   0.000  1.00  0.00     0.041 C 
ATOM     12  C   UNL     1      -0.595  -1.853   0.000  1.00  0.00     0.015 C 
ATOM     13  C   UNL     1      -2.637  -1.472   0.000  1.00  0.00     0.342 C 
ATOM     14  O   UNL     1      -2.432  -0.782   0.000  1.00  0.00    -0.298 OA
ATOM     15  C   UNL     1      -1.912  -1.280   0.000  1.00  0.00     0.325 C 
ENDROOT
BRANCH   1  16
ATOM     16  C   UNL     1       2.348  -1.601   0.000  1.00  0.00     0.035 C 
BRANCH  16  17
ATOM     17  C   UNL     1       2.980  -2.962   0.000  1.00  0.00    -0.023 C 
BRANCH  17  18
ATOM     18  C   UNL     1       4.474  -3.095   0.000  1.00  0.00    -0.056 C 
ATOM     19  C   UNL     1       5.105  -4.456   0.000  1.00  0.00     0.044 C 
BRANCH  18  20
ATOM     20  C   UNL     1       5.337  -1.868   0.000  1.00  0.00    -0.005 C 
ATOM     21  C   UNL     1       6.831  -2.002   0.000  1.00  0.00     0.009 C 
ENDBRANCH  18  20
ENDBRANCH  17  18
ENDBRANCH  16  17
ENDBRANCH   1  16
BRANCH   5  22
ATOM     22  O   UNL     1       0.578   2.491   0.000  1.00  0.00    -0.462 OA
BRANCH  22  23
ATOM     23  C   UNL     1       2.027   2.877   0.000  1.00  0.00     0.306 C 
ATOM     24  O   UNL     1       3.086   1.814   0.000  1.00  0.00    -0.252 OA
BRANCH  23  25
ATOM     25  C   UNL     1       2.418   4.325   0.000  1.00  0.00     0.122 C 
BRANCH  25  26
ATOM     26  C   UNL     1       3.868   4.711   0.000  1.00  0.00     0.008 C 
ATOM     27  C   UNL     1       4.259   6.159   0.000  1.00  0.00     0.004 C 
ENDBRANCH  25  26
ENDBRANCH  23  25
ENDBRANCH  22  23
ENDBRANCH   5  22
BRANCH  10  28
ATOM     28  O   UNL     1      -2.827  -5.135   0.000  1.00  0.00    -0.389 OA
ATOM     29  H   UNL     1       0.000   0.000   0.000  1.00  0.00     0.211 HD
ENDBRANCH  10  28
BRANCH  15  30
ATOM     30  O   UNL     1      -0.313   1.522   0.000  1.00  0.00    -0.435 OA
BRANCH  30  31
ATOM     31  C   UNL     1      -0.389   3.020   0.000  1.00  0.00     0.304 C 
ATOM     32  C   UNL     1       0.871   3.835   0.000  1.00  0.00     0.139 C 
ATOM     33  O   UNL     1      -1.724   3.704   0.000  1.00  0.00    -0.253 OA
ENDBRANCH  30  31
ENDBRANCH  15  30
BRANCH  13  34
ATOM     34  O   UNL     1      -5.416   0.165   0.000  1.00  0.00    -0.432 OA
BRANCH  34  35
ATOM     35  C   UNL     1      -6.094   1.503   0.000  1.00  0.00     0.305 C 
ATOM     36  C   UNL     1      -7.592   1.584   0.000  1.00  0.00     0.139 C 
ATOM     37  O   UNL     1      -5.275   2.759   0.000  1.00  0.00    -0.253 OA
ENDBRANCH  34  35
ENDBRANCH  13  34
TORSDOF 13
