REMARK SMILES COc1ccc2ccc(=O)oc2c1C[C@H](O)C(C)(C)O
REMARK SMILES IDX 14 1 13 2 3 3 4 4 5 5 12 6 6 7 11 8 7 9 9 10 8 11 10 12 2 13
REMARK SMILES IDX 1 14 15 15 16 16 17 18 18 19 19 20 20 21
REMARK H PARENT 16 17 20 22
ROOT
ATOM      1  C   UNL     1      -0.915   0.787   0.000  1.00  0.00     0.078 C 
ENDROOT
BRANCH   1   2
ATOM      2  C   UNL     1       0.110  -0.308   0.000  1.00  0.00     0.040 A 
ATOM      3  C   UNL     1      -0.325  -1.743   0.000  1.00  0.00     0.125 A 
ATOM      4  C   UNL     1       0.701  -2.838   0.000  1.00  0.00     0.047 A 
ATOM      5  C   UNL     1       2.161  -2.497   0.000  1.00  0.00     0.016 A 
ATOM      6  C   UNL     1       1.571   0.033   0.000  1.00  0.00     0.145 A 
ATOM      7  C   UNL     1       2.597  -1.062   0.000  1.00  0.00     0.018 A 
ATOM      8  O   UNL     1       2.006   1.468   0.000  1.00  0.00    -0.422 OA
ATOM      9  C   UNL     1       4.057  -0.721   0.000  1.00  0.00     0.019 A 
ATOM     10  C   UNL     1       3.467   1.809   0.000  1.00  0.00     0.336 A 
ATOM     11  C   UNL     1       4.493   0.714   0.000  1.00  0.00     0.094 A 
ATOM     12  O   UNL     1       3.902   3.245   0.000  1.00  0.00    -0.246 OA
BRANCH   3  13
ATOM     13  O   UNL     1      -1.786  -2.084   0.000  1.00  0.00    -0.496 OA
ATOM     14  C   UNL     1      -2.221  -3.519   0.000  1.00  0.00     0.278 C 
ENDBRANCH   3  13
ENDBRANCH   1   2
BRANCH   1  15
ATOM     15  C   UNL     1      -2.376   0.446   0.000  1.00  0.00     0.150 C 
BRANCH  15  16
ATOM     16  O   UNL     1      -2.811  -0.989   0.000  1.00  0.00    -0.390 OA
ATOM     17  H   UNL     1       0.000   0.000   0.000  1.00  0.00     0.211 HD
ENDBRANCH  15  16
BRANCH  15  18
ATOM     18  C   UNL     1      -3.401   1.541   0.000  1.00  0.00     0.085 C 
ATOM     19  C   UNL     1      -2.307   2.566   0.000  1.00  0.00     0.044 C 
ATOM     20  C   UNL     1      -4.496   0.515   0.000  1.00  0.00     0.044 C 
BRANCH  18  21
ATOM     21  O   UNL     1      -4.427   2.636   0.000  1.00  0.00    -0.388 OA
ATOM     22  H   UNL     1       0.000   0.000   0.000  1.00  0.00     0.211 HD
ENDBRANCH  18  21
ENDBRANCH  15  18
ENDBRANCH   1  15
TORSDOF 6
