REMARK SMILES CC(=O)O[C@H]1C[C@@]2(C)[C@H](c3ccoc3)OC(=O)[C@H]3O[C@]32[C@]2(C)C(=O)CC3C(C)(C)OC(=O)C=C[C@]3(C)C12
REMARK SMILES IDX 5 1 6 2 7 3 8 4 9 5 15 6 16 7 17 8 18 9 19 10 20 11 21 12
REMARK SMILES IDX 22 13 23 14 24 15 25 16 26 17 35 18 36 19 37 20 4 21 2 22
REMARK SMILES IDX 1 23 3 24 34 25 33 26 10 28 14 29 11 30 13 31 12 32 27 33
REMARK SMILES IDX 28 34 29 35 30 36 31 37 32 38
REMARK H PARENT
REMARK Flexibility Score:    8.900
ROOT
ATOM      1  C   UNL     1       0.045   1.159   0.000  1.00  0.00     0.182 C 
ATOM      2  C   UNL     1       1.528   0.934   0.000  1.00  0.00     0.059 C 
ATOM      3  C   UNL     1       2.075  -0.463   0.000  1.00  0.00     0.046 C 
ATOM      4  C   UNL     1       3.011   0.708   0.000  1.00  0.00     0.019 C 
ATOM      5  C   UNL     1       3.558  -0.689   0.000  1.00  0.00     0.219 C 
ATOM      6  O   UNL     1       4.104  -2.085   0.000  1.00  0.00    -0.455 OA
ATOM      7  C   UNL     1       3.167  -3.257   0.000  1.00  0.00     0.339 C 
ATOM      8  O   UNL     1       3.714  -4.654   0.000  1.00  0.00    -0.249 OA
ATOM      9  C   UNL     1       1.684  -3.032   0.000  1.00  0.00     0.262 C 
ATOM     10  O   UNL     1       0.201  -2.807   0.000  1.00  0.00    -0.352 OA
ATOM     11  C   UNL     1       1.138  -1.635   0.000  1.00  0.00     0.128 C 
ATOM     12  C   UNL     1      -0.345  -1.410   0.000  1.00  0.00     0.066 C 
ATOM     13  C   UNL     1       0.592  -0.238   0.000  1.00  0.00     0.023 C 
ATOM     14  C   UNL     1      -1.282  -2.582   0.000  1.00  0.00     0.142 C 
ATOM     15  O   UNL     1      -0.735  -3.978   0.000  1.00  0.00    -0.299 OA
ATOM     16  C   UNL     1      -2.765  -2.356   0.000  1.00  0.00     0.085 C 
ATOM     17  C   UNL     1      -3.311  -0.959   0.000  1.00  0.00     0.050 C 
ATOM     18  C   UNL     1      -2.374   0.212   0.000  1.00  0.00     0.000 C 
ATOM     19  C   UNL     1      -1.353   1.311   0.000  1.00  0.00     0.017 C 
ATOM     20  C   UNL     1      -0.891  -0.013   0.000  1.00  0.00     0.057 C 
ENDROOT
BRANCH   1  21
ATOM     21  O   UNL     1      -0.501   2.556   0.000  1.00  0.00    -0.462 OA
BRANCH  21  22
ATOM     22  C   UNL     1       0.435   3.727   0.000  1.00  0.00     0.302 C 
ATOM     23  C   UNL     1      -0.111   5.124   0.000  1.00  0.00     0.139 C 
ATOM     24  O   UNL     1       1.918   3.502   0.000  1.00  0.00    -0.253 OA
ENDBRANCH  21  22
ENDBRANCH   1  21
BRANCH  18  25
ATOM     25  C   UNL     1      -2.707   1.675   0.000  1.00  0.00    -0.012 C 
BRANCH  25  26
ATOM     26  C   UNL     1      -4.057   2.327   0.000  1.00  0.00     0.089 CG0
ATOM     27  G   UNL     1      -5.410   1.678   0.000  1.00  0.00     0.000 G0
ENDBRANCH  25  26
ENDBRANCH  18  25
BRANCH   5  28
ATOM     28  C   UNL     1       4.494   0.483   0.000  1.00  0.00     0.031 A 
ATOM     29  C   UNL     1       4.096   1.930   0.000  1.00  0.00     0.202 A 
ATOM     30  C   UNL     1       5.992   0.414   0.000  1.00  0.00     0.049 A 
ATOM     31  O   UNL     1       5.349   2.755   0.000  1.00  0.00    -0.472 OA
ATOM     32  C   UNL     1       6.521   1.818   0.000  1.00  0.00     0.195 A 
ENDBRANCH   5  28
BRANCH  17  33
ATOM     33  C   UNL     1      -4.811  -0.958   0.000  1.00  0.00     0.111 C 
ATOM     34  C   UNL     1      -4.479  -2.421   0.000  1.00  0.00     0.057 C 
ATOM     35  C   UNL     1      -6.163  -1.607   0.000  1.00  0.00     0.057 C 
BRANCH  33  36
ATOM     36  O   UNL     1      -5.745   0.216   0.000  1.00  0.00    -0.456 OA
BRANCH  36  37
ATOM     37  C   UNL     1      -5.410   1.678   0.000  1.00  0.00     0.330 CG0
ATOM     38  O   UNL     1      -6.581   2.615   0.000  1.00  0.00    -0.247 OA
ATOM     39  G   UNL     1      -4.057   2.327   0.000  1.00  0.00     0.000 G0
ENDBRANCH  36  37
ENDBRANCH  33  36
ENDBRANCH  17  33
TORSDOF 3
