REMARK SMILES CC(C)=CCOc1ccc(-c2coc3cc4c(c(O)c3c2=O)C=CC(C)(C)O4)cc1
REMARK SMILES IDX 6 1 5 2 4 3 2 4 1 5 3 6 7 7 8 8 30 9 9 10 29 11 10 12 11 13
REMARK SMILES IDX 12 14 21 15 13 16 20 17 14 18 18 19 15 20 17 21 16 22 23 23
REMARK SMILES IDX 28 24 24 25 25 26 22 27 26 28 27 29 19 30
REMARK H PARENT 19 31
ROOT
ATOM      1  O   UNL     1      -6.090  -1.196   0.000  1.00  0.00    -0.490 OA
ENDROOT
BRANCH   1   2
ATOM      2  C   UNL     1      -7.182  -0.168   0.000  1.00  0.00     0.257 C 
BRANCH   2   3
ATOM      3  C   UNL     1      -8.618  -0.599   0.000  1.00  0.00     0.012 C 
BRANCH   3   4
ATOM      4  C   UNL     1      -9.710   0.429   0.000  1.00  0.00    -0.077 C 
ATOM      5  C   UNL     1     -11.147  -0.002   0.000  1.00  0.00     0.039 C 
ATOM      6  C   UNL     1      -9.366   1.889   0.000  1.00  0.00     0.039 C 
ENDBRANCH   3   4
ENDBRANCH   2   3
ENDBRANCH   1   2
BRANCH   1   7
ATOM      7  C   UNL     1      -4.653  -0.764   0.000  1.00  0.00     0.119 A 
ATOM      8  C   UNL     1      -4.309   0.695   0.000  1.00  0.00     0.047 A 
ATOM      9  C   UNL     1      -3.561  -1.793   0.000  1.00  0.00     0.047 A 
ATOM     10  C   UNL     1      -2.872   1.127   0.000  1.00  0.00     0.013 A 
ATOM     11  C   UNL     1      -2.125  -1.361   0.000  1.00  0.00     0.013 A 
ATOM     12  C   UNL     1      -1.780   0.098   0.000  1.00  0.00    -0.011 A 
BRANCH  12  13
ATOM     13  C   UNL     1      -0.344   0.530   0.000  1.00  0.00     0.065 A 
ATOM     14  C   UNL     1       0.001   1.990   0.000  1.00  0.00     0.208 A 
ATOM     15  C   UNL     1       0.748  -0.499   0.000  1.00  0.00     0.204 A 
ATOM     16  O   UNL     1       1.438   2.421   0.000  1.00  0.00    -0.463 OA
ATOM     17  C   UNL     1       2.185  -0.067   0.000  1.00  0.00     0.108 A 
ATOM     18  C   UNL     1       2.530   1.393   0.000  1.00  0.00     0.145 A 
ATOM     19  C   UNL     1       3.277  -1.096   0.000  1.00  0.00     0.141 A 
ATOM     20  C   UNL     1       3.966   1.824   0.000  1.00  0.00     0.095 A 
ATOM     21  C   UNL     1       4.714  -0.664   0.000  1.00  0.00     0.059 A 
ATOM     22  C   UNL     1       5.058   0.796   0.000  1.00  0.00     0.135 A 
ATOM     23  C   UNL     1       5.806  -1.693   0.000  1.00  0.00     0.015 C 
ATOM     24  O   UNL     1       6.495   1.227   0.000  1.00  0.00    -0.483 OA
ATOM     25  C   UNL     1       7.242  -1.261   0.000  1.00  0.00     0.021 C 
ATOM     26  C   UNL     1       7.587   0.199   0.000  1.00  0.00     0.122 C 
ATOM     27  O   UNL     1       0.404  -1.958   0.000  1.00  0.00    -0.288 OA
ATOM     28  C   UNL     1       8.410   1.453   0.000  1.00  0.00     0.061 C 
ATOM     29  C   UNL     1       8.965  -0.394   0.000  1.00  0.00     0.061 C 
BRANCH  19  30
ATOM     30  O   UNL     1       2.932  -2.555   0.000  1.00  0.00    -0.506 OA
ATOM     31  H   UNL     1       0.000   0.000   0.000  1.00  0.00     0.293 HD
ENDBRANCH  19  30
ENDBRANCH  12  13
ENDBRANCH   1   7
TORSDOF 6
