REMARK SMILES COc1c(C(=O)CC(=O)c2ccc3c(c2)OCO3)ccc2c1C=CC(C)(C)O2
REMARK SMILES IDX 5 1 6 2 4 3 3 4 22 5 19 6 21 7 23 8 20 9 28 10 24 11 25 12
REMARK SMILES IDX 26 13 27 14 2 15 1 16 7 17 8 18 9 19 10 20 11 21 15 22 12 23
REMARK SMILES IDX 14 24 13 25 16 26 18 27 17 28
REMARK H PARENT
ROOT
ATOM      1  C   UNL     1       0.133  -1.009   0.000  1.00  0.00     0.174 C 
ATOM      2  O   UNL     1       0.092  -2.509   0.000  1.00  0.00    -0.294 OA
ENDROOT
BRANCH   1   3
ATOM      3  C   UNL     1       1.451  -0.294   0.000  1.00  0.00     0.061 A 
ATOM      4  C   UNL     1       2.730  -1.079   0.000  1.00  0.00     0.140 A 
ATOM      5  C   UNL     1       4.048  -0.364   0.000  1.00  0.00     0.059 A 
ATOM      6  C   UNL     1       1.492   1.205   0.000  1.00  0.00     0.019 A 
ATOM      7  C   UNL     1       4.089   1.135   0.000  1.00  0.00     0.131 A 
ATOM      8  C   UNL     1       5.327  -1.149   0.000  1.00  0.00     0.015 C 
ATOM      9  C   UNL     1       2.810   1.920   0.000  1.00  0.00     0.048 A 
ATOM     10  O   UNL     1       5.407   1.850   0.000  1.00  0.00    -0.483 OA
ATOM     11  C   UNL     1       6.646  -0.434   0.000  1.00  0.00     0.021 C 
ATOM     12  C   UNL     1       6.686   1.066   0.000  1.00  0.00     0.122 C 
ATOM     13  C   UNL     1       7.237   2.461   0.000  1.00  0.00     0.061 C 
ATOM     14  C   UNL     1       8.155   0.766   0.000  1.00  0.00     0.061 C 
BRANCH   4  15
ATOM     15  O   UNL     1       2.689  -2.578   0.000  1.00  0.00    -0.495 OA
ATOM     16  C   UNL     1       1.371  -3.293   0.000  1.00  0.00     0.278 C 
ENDBRANCH   4  15
ENDBRANCH   1   3
BRANCH   1  17
ATOM     17  C   UNL     1      -1.146  -0.225   0.000  1.00  0.00     0.162 C 
BRANCH  17  18
ATOM     18  C   UNL     1      -2.465  -0.940   0.000  1.00  0.00     0.170 C 
ATOM     19  O   UNL     1      -2.505  -2.439   0.000  1.00  0.00    -0.294 OA
BRANCH  18  20
ATOM     20  C   UNL     1      -3.743  -0.155   0.000  1.00  0.00     0.022 A 
ATOM     21  C   UNL     1      -3.703   1.345   0.000  1.00  0.00     0.016 A 
ATOM     22  C   UNL     1      -5.062  -0.870   0.000  1.00  0.00     0.062 A 
ATOM     23  C   UNL     1      -4.981   2.129   0.000  1.00  0.00     0.051 A 
ATOM     24  C   UNL     1      -6.340  -0.085   0.000  1.00  0.00     0.166 A 
ATOM     25  C   UNL     1      -6.300   1.414   0.000  1.00  0.00     0.165 A 
ATOM     26  O   UNL     1      -7.779  -0.510   0.000  1.00  0.00    -0.454 OA
ATOM     27  O   UNL     1      -7.713   1.916   0.000  1.00  0.00    -0.454 OA
ATOM     28  C   UNL     1      -8.627   0.726   0.000  1.00  0.00     0.468 C 
ENDBRANCH  18  20
ENDBRANCH  17  18
ENDBRANCH   1  17
TORSDOF 5
