REMARK SMILES CC(C)=CCCC(C)=CCc1cc(C(=O)O)ccc1O
REMARK SMILES IDX 7 1 8 2 6 3 5 4 4 5 2 6 1 7 3 8 9 9 10 10 11 11 12 12 19 13
REMARK SMILES IDX 13 14 18 15 17 16 20 17 14 19 15 20 16 21
REMARK H PARENT 20 18 16 22
ROOT
ATOM      1  C   UNL     1       1.680  -1.335   0.000  1.00  0.00    -0.077 C 
ATOM      2  C   UNL     1       2.157  -2.758   0.000  1.00  0.00     0.039 C 
ENDROOT
BRANCH   1   3
ATOM      3  C   UNL     1       2.674  -0.211   0.000  1.00  0.00     0.034 C 
BRANCH   3   4
ATOM      4  C   UNL     1       4.144  -0.510   0.000  1.00  0.00     0.032 C 
BRANCH   4   5
ATOM      5  C   UNL     1       5.137   0.614   0.000  1.00  0.00    -0.028 C 
BRANCH   5   6
ATOM      6  C   UNL     1       6.607   0.315   0.000  1.00  0.00    -0.080 C 
ATOM      7  C   UNL     1       7.601   1.439   0.000  1.00  0.00     0.039 C 
ATOM      8  C   UNL     1       7.084  -1.107   0.000  1.00  0.00     0.039 C 
ENDBRANCH   5   6
ENDBRANCH   4   5
ENDBRANCH   3   4
ENDBRANCH   1   3
BRANCH   1   9
ATOM      9  C   UNL     1       0.210  -1.037   0.000  1.00  0.00    -0.023 C 
BRANCH   9  10
ATOM     10  C   UNL     1      -0.266   0.385   0.000  1.00  0.00     0.066 C 
BRANCH  10  11
ATOM     11  C   UNL     1      -1.736   0.684   0.000  1.00  0.00    -0.002 A 
ATOM     12  C   UNL     1      -2.730  -0.440   0.000  1.00  0.00     0.023 A 
ATOM     13  C   UNL     1      -2.213   2.106   0.000  1.00  0.00     0.119 A 
ATOM     14  C   UNL     1      -4.200  -0.141   0.000  1.00  0.00     0.060 A 
ATOM     15  C   UNL     1      -3.683   2.405   0.000  1.00  0.00     0.047 A 
ATOM     16  C   UNL     1      -4.676   1.281   0.000  1.00  0.00     0.019 A 
BRANCH  13  17
ATOM     17  O   UNL     1      -1.219   3.230   0.000  1.00  0.00    -0.508 OA
ATOM     18  H   UNL     1       0.000   0.000   0.000  1.00  0.00     0.293 HD
ENDBRANCH  13  17
BRANCH  14  19
ATOM     19  C   UNL     1      -5.193  -1.265   0.000  1.00  0.00     0.335 C 
ATOM     20  O   UNL     1      -4.717  -2.688   0.000  1.00  0.00    -0.246 OA
BRANCH  19  21
ATOM     21  O   UNL     1      -6.663  -0.967   0.000  1.00  0.00    -0.478 OA
ATOM     22  H   UNL     1       0.000   0.000   0.000  1.00  0.00     0.297 HD
ENDBRANCH  19  21
ENDBRANCH  14  19
ENDBRANCH  10  11
ENDBRANCH   9  10
ENDBRANCH   1   9
TORSDOF 10
