REMARK SMILES C=C/C(C)=C\C[C@]1(C)[C@H](C)[C@@H](O)[C@H](OC(C)=O)[C@@]23C(=C[C@H](OC)C[C@@H]12)[C@@H](OC(=O)CCC)O[C@H]3OC(C)=O
REMARK SMILES IDX 7 1 8 2 9 3 10 4 11 5 13 6 18 7 19 8 20 9 21 10 24 11 25 12
REMARK SMILES IDX 26 13 33 14 34 15 6 16 5 17 3 18 4 19 2 20 1 21 12 22 14 24
REMARK SMILES IDX 15 25 16 26 17 27 22 28 23 29 35 30 36 31 37 32 38 33 27 34
REMARK SMILES IDX 28 35 29 36 30 37 31 38 32 39
REMARK H PARENT 12 23
ROOT
ATOM      1  C   UNL     1       2.510  -0.442   0.000  1.00  0.00    -0.020 C 
ATOM      2  C   UNL     1       3.251  -1.746   0.000  1.00  0.00     0.012 C 
ATOM      3  C   UNL     1       2.258   1.037   0.000  1.00  0.00     0.025 C 
ATOM      4  C   UNL     1       3.413   1.994   0.000  1.00  0.00     0.011 C 
ATOM      5  C   UNL     1       0.852   1.559   0.000  1.00  0.00     0.160 C 
ATOM      6  C   UNL     1      -0.303   0.602   0.000  1.00  0.00     0.222 C 
ATOM      7  C   UNL     1      -0.052  -0.877   0.000  1.00  0.00     0.103 C 
ATOM      8  C   UNL     1      -1.207  -1.834   0.000  1.00  0.00     0.013 C 
ATOM      9  C   UNL     1      -0.956  -3.313   0.000  1.00  0.00     0.011 C 
ATOM     10  C   UNL     1       0.451  -3.835   0.000  1.00  0.00     0.141 C 
ATOM     11  C   UNL     1       1.606  -2.878   0.000  1.00  0.00     0.042 C 
ATOM     12  C   UNL     1       1.355  -1.399   0.000  1.00  0.00     0.019 C 
ATOM     13  C   UNL     1      -2.474  -1.031   0.000  1.00  0.00     0.343 C 
ATOM     14  O   UNL     1      -2.102   0.422   0.000  1.00  0.00    -0.298 OA
ATOM     15  C   UNL     1      -0.605   0.517   0.000  1.00  0.00     0.329 C 
ENDROOT
BRANCH   1  16
ATOM     16  C   UNL     1       3.922   0.062   0.000  1.00  0.00     0.035 C 
BRANCH  16  17
ATOM     17  C   UNL     1       5.065  -0.909   0.000  1.00  0.00    -0.023 C 
BRANCH  17  18
ATOM     18  C   UNL     1       6.478  -0.405   0.000  1.00  0.00    -0.056 C 
ATOM     19  C   UNL     1       7.621  -1.376   0.000  1.00  0.00     0.044 C 
BRANCH  18  20
ATOM     20  C   UNL     1       6.748   1.071   0.000  1.00  0.00    -0.005 C 
ATOM     21  C   UNL     1       8.161   1.575   0.000  1.00  0.00     0.009 C 
ENDBRANCH  18  20
ENDBRANCH  17  18
ENDBRANCH  16  17
ENDBRANCH   1  16
BRANCH   5  22
ATOM     22  O   UNL     1       0.601   3.038   0.000  1.00  0.00    -0.389 OA
ATOM     23  H   UNL     1       0.000   0.000   0.000  1.00  0.00     0.211 HD
ENDBRANCH   5  22
BRANCH   6  24
ATOM     24  O   UNL     1      -1.709   1.123   0.000  1.00  0.00    -0.459 OA
BRANCH  24  25
ATOM     25  C   UNL     1      -1.960   2.602   0.000  1.00  0.00     0.303 C 
ATOM     26  C   UNL     1      -3.367   3.124   0.000  1.00  0.00     0.139 C 
ATOM     27  O   UNL     1      -1.071   3.810   0.000  1.00  0.00    -0.253 OA
ENDBRANCH  24  25
ENDBRANCH   6  24
BRANCH  10  28
ATOM     28  O   UNL     1       0.702  -5.314   0.000  1.00  0.00    -0.377 OA
ATOM     29  C   UNL     1      -0.453  -6.271   0.000  1.00  0.00     0.195 C 
ENDBRANCH  10  28
BRANCH  15  30
ATOM     30  O   UNL     1       0.198   1.784   0.000  1.00  0.00    -0.435 OA
BRANCH  30  31
ATOM     31  C   UNL     1      -0.498   3.113   0.000  1.00  0.00     0.304 C 
ATOM     32  C   UNL     1       0.305   4.380   0.000  1.00  0.00     0.139 C 
ATOM     33  O   UNL     1      -1.937   3.536   0.000  1.00  0.00    -0.253 OA
ENDBRANCH  30  31
ENDBRANCH  15  30
BRANCH  13  34
ATOM     34  O   UNL     1      -3.868  -1.584   0.000  1.00  0.00    -0.431 OA
BRANCH  34  35
ATOM     35  C   UNL     1      -5.044  -0.653   0.000  1.00  0.00     0.308 C 
ATOM     36  O   UNL     1      -4.826   0.831   0.000  1.00  0.00    -0.252 OA
BRANCH  35  37
ATOM     37  C   UNL     1      -6.439  -1.207   0.000  1.00  0.00     0.122 C 
BRANCH  37  38
ATOM     38  C   UNL     1      -7.615  -0.276   0.000  1.00  0.00     0.008 C 
ATOM     39  C   UNL     1      -9.009  -0.829   0.000  1.00  0.00     0.004 C 
ENDBRANCH  37  38
ENDBRANCH  35  37
ENDBRANCH  34  35
ENDBRANCH  13  34
TORSDOF 14
