REMARK SMILES O=C(/C=C/c1ccc(O)cc1)O[C@@H]1[C@@H](O)[C@H](O)[C@@H](CO)O[C@H]1c1c(O)cc2oc3cc(O)c(O)cc3c(=O)c2c1O
REMARK SMILES IDX 1 1 2 2 3 3 4 4 5 5 6 6 11 7 7 8 10 9 8 10 9 11 12 13 13 14
REMARK SMILES IDX 14 15 22 16 16 17 21 18 18 19 15 20 23 22 24 23 40 24 26 25
REMARK SMILES IDX 39 26 27 27 37 28 28 29 36 30 29 31 35 32 30 33 33 34 31 35
REMARK SMILES IDX 38 36 25 37 41 39 34 41 32 43 17 45 19 47 20 48
REMARK H PARENT 9 12 15 21 25 38 41 40 34 42 32 44 17 46 20 49
ROOT
ATOM      1  O   UNL     1      -2.390   3.657   0.000  1.00  0.00    -0.247 OA
ATOM      2  C   UNL     1      -1.277   2.651   0.000  1.00  0.00     0.331 C 
ENDROOT
BRANCH   2   3
ATOM      3  C   UNL     1       0.150   3.111   0.000  1.00  0.00     0.094 C 
BRANCH   3   4
ATOM      4  C   UNL     1       0.466   4.578   0.000  1.00  0.00     0.015 C 
BRANCH   4   5
ATOM      5  C   UNL     1       1.893   5.038   0.000  1.00  0.00    -0.025 A 
ATOM      6  C   UNL     1       3.006   4.031   0.000  1.00  0.00     0.012 A 
ATOM      7  C   UNL     1       2.209   6.504   0.000  1.00  0.00     0.012 A 
ATOM      8  C   UNL     1       4.433   4.492   0.000  1.00  0.00     0.047 A 
ATOM      9  C   UNL     1       3.636   6.964   0.000  1.00  0.00     0.047 A 
ATOM     10  C   UNL     1       4.749   5.958   0.000  1.00  0.00     0.115 A 
BRANCH  10  11
ATOM     11  O   UNL     1       6.176   6.418   0.000  1.00  0.00    -0.508 OA
ATOM     12  H   UNL     1       0.000   0.000   0.000  1.00  0.00     0.293 HD
ENDBRANCH  10  11
ENDBRANCH   4   5
ENDBRANCH   3   4
ENDBRANCH   2   3
BRANCH   2  13
ATOM     13  O   UNL     1      -1.593   1.184   0.000  1.00  0.00    -0.453 OA
BRANCH  13  14
ATOM     14  C   UNL     1      -3.020   0.724   0.000  1.00  0.00     0.242 C 
ATOM     15  C   UNL     1      -4.133   1.730   0.000  1.00  0.00     0.189 C 
ATOM     16  C   UNL     1      -3.336  -0.742   0.000  1.00  0.00     0.200 C 
ATOM     17  C   UNL     1      -5.560   1.270   0.000  1.00  0.00     0.178 C 
ATOM     18  O   UNL     1      -4.763  -1.202   0.000  1.00  0.00    -0.361 OA
ATOM     19  C   UNL     1      -5.876  -0.196   0.000  1.00  0.00     0.176 C 
BRANCH  15  20
ATOM     20  O   UNL     1      -3.817   3.197   0.000  1.00  0.00    -0.386 OA
ATOM     21  H   UNL     1       0.000   0.000   0.000  1.00  0.00     0.211 HD
ENDBRANCH  15  20
BRANCH  16  22
ATOM     22  C   UNL     1      -2.223  -1.749   0.000  1.00  0.00     0.069 A 
ATOM     23  C   UNL     1      -2.538  -3.215   0.000  1.00  0.00     0.129 A 
ATOM     24  C   UNL     1      -0.795  -1.288   0.000  1.00  0.00     0.140 A 
ATOM     25  C   UNL     1      -1.426  -4.221   0.000  1.00  0.00     0.094 A 
ATOM     26  C   UNL     1       0.317  -2.295   0.000  1.00  0.00     0.108 A 
ATOM     27  C   UNL     1       0.002  -3.761   0.000  1.00  0.00     0.146 A 
ATOM     28  C   UNL     1       1.744  -1.835   0.000  1.00  0.00     0.204 A 
ATOM     29  O   UNL     1       1.114  -4.768   0.000  1.00  0.00    -0.455 OA
ATOM     30  C   UNL     1       2.857  -2.841   0.000  1.00  0.00     0.069 A 
ATOM     31  C   UNL     1       2.542  -4.307   0.000  1.00  0.00     0.142 A 
ATOM     32  C   UNL     1       4.285  -2.381   0.000  1.00  0.00     0.066 A 
ATOM     33  C   UNL     1       3.654  -5.314   0.000  1.00  0.00     0.098 A 
ATOM     34  C   UNL     1       5.397  -3.387   0.000  1.00  0.00     0.158 A 
ATOM     35  C   UNL     1       5.082  -4.853   0.000  1.00  0.00     0.161 A 
ATOM     36  O   UNL     1       2.060  -0.368   0.000  1.00  0.00    -0.288 OA
BRANCH  23  37
ATOM     37  O   UNL     1      -3.966  -3.675   0.000  1.00  0.00    -0.507 OA
ATOM     38  H   UNL     1       0.000   0.000   0.000  1.00  0.00     0.293 HD
ENDBRANCH  23  37
BRANCH  24  39
ATOM     39  O   UNL     1      -0.480   0.178   0.000  1.00  0.00    -0.506 OA
ATOM     40  H   UNL     1       0.000   0.000   0.000  1.00  0.00     0.293 HD
ENDBRANCH  24  39
BRANCH  34  41
ATOM     41  O   UNL     1       6.824  -2.927   0.000  1.00  0.00    -0.504 OA
ATOM     42  H   UNL     1       0.000   0.000   0.000  1.00  0.00     0.293 HD
ENDBRANCH  34  41
BRANCH  35  43
ATOM     43  O   UNL     1       6.194  -5.860   0.000  1.00  0.00    -0.504 OA
ATOM     44  H   UNL     1       0.000   0.000   0.000  1.00  0.00     0.293 HD
ENDBRANCH  35  43
ENDBRANCH  16  22
BRANCH  17  45
ATOM     45  O   UNL     1      -6.673   2.277   0.000  1.00  0.00    -0.387 OA
ATOM     46  H   UNL     1       0.000   0.000   0.000  1.00  0.00     0.211 HD
ENDBRANCH  17  45
BRANCH  19  47
ATOM     47  C   UNL     1      -7.303  -0.656   0.000  1.00  0.00     0.191 C 
BRANCH  47  48
ATOM     48  O   UNL     1      -7.619  -2.123   0.000  1.00  0.00    -0.394 OA
ATOM     49  H   UNL     1       0.000   0.000   0.000  1.00  0.00     0.210 HD
ENDBRANCH  47  48
ENDBRANCH  19  47
ENDBRANCH  13  14
ENDBRANCH   2  13
TORSDOF 15
