REMARK SMILES CCCCCCCCCCCCCCCOC(=O)C=Cc1ccc(OC)cc1O
REMARK SMILES IDX 11 1 10 2 9 3 8 4 7 5 6 6 5 7 4 8 3 9 2 10 1 11 12 12 13 13
REMARK SMILES IDX 14 14 15 15 16 16 17 17 18 18 19 19 20 20 21 21 22 22 28 23
REMARK SMILES IDX 23 24 27 25 24 26 29 27 25 29 26 30
REMARK H PARENT 29 28
ROOT
ATOM      1  C   UNL     1      -3.695  -0.471   0.000  1.00  0.00     0.000 C 
ENDROOT
BRANCH   1   2
ATOM      2  C   UNL     1      -4.963   0.331   0.000  1.00  0.00     0.000 C 
BRANCH   2   3
ATOM      3  C   UNL     1      -6.291  -0.365   0.000  1.00  0.00     0.000 C 
BRANCH   3   4
ATOM      4  C   UNL     1      -7.559   0.437   0.000  1.00  0.00     0.000 C 
BRANCH   4   5
ATOM      5  C   UNL     1      -8.887  -0.260   0.000  1.00  0.00    -0.000 C 
BRANCH   5   6
ATOM      6  C   UNL     1     -10.155   0.542   0.000  1.00  0.00    -0.000 C 
BRANCH   6   7
ATOM      7  C   UNL     1     -11.483  -0.154   0.000  1.00  0.00    -0.000 C 
BRANCH   7   8
ATOM      8  C   UNL     1     -12.751   0.648   0.000  1.00  0.00    -0.000 C 
BRANCH   8   9
ATOM      9  C   UNL     1     -14.079  -0.049   0.000  1.00  0.00    -0.000 C 
BRANCH   9  10
ATOM     10  C   UNL     1     -15.347   0.754   0.000  1.00  0.00    -0.003 C 
ATOM     11  C   UNL     1     -16.675   0.057   0.000  1.00  0.00     0.004 C 
ENDBRANCH   9  10
ENDBRANCH   8   9
ENDBRANCH   7   8
ENDBRANCH   6   7
ENDBRANCH   5   6
ENDBRANCH   4   5
ENDBRANCH   3   4
ENDBRANCH   2   3
ENDBRANCH   1   2
BRANCH   1  12
ATOM     12  C   UNL     1      -2.367   0.226   0.000  1.00  0.00     0.000 C 
BRANCH  12  13
ATOM     13  C   UNL     1      -1.099  -0.577   0.000  1.00  0.00     0.003 C 
BRANCH  13  14
ATOM     14  C   UNL     1       0.229   0.120   0.000  1.00  0.00     0.042 C 
BRANCH  14  15
ATOM     15  C   UNL     1       1.496  -0.682   0.000  1.00  0.00     0.233 C 
BRANCH  15  16
ATOM     16  O   UNL     1       2.825   0.015   0.000  1.00  0.00    -0.463 OA
BRANCH  16  17
ATOM     17  C   UNL     1       4.093  -0.788   0.000  1.00  0.00     0.330 C 
ATOM     18  O   UNL     1       4.032  -2.286   0.000  1.00  0.00    -0.247 OA
BRANCH  17  19
ATOM     19  C   UNL     1       5.421  -0.091   0.000  1.00  0.00     0.094 C 
BRANCH  19  20
ATOM     20  C   UNL     1       6.688  -0.893   0.000  1.00  0.00     0.019 C 
BRANCH  20  21
ATOM     21  C   UNL     1       8.017  -0.197   0.000  1.00  0.00     0.017 A 
ATOM     22  C   UNL     1       8.078   1.302   0.000  1.00  0.00     0.016 A 
ATOM     23  C   UNL     1       9.284  -0.999   0.000  1.00  0.00     0.126 A 
ATOM     24  C   UNL     1       9.406   1.999   0.000  1.00  0.00     0.047 A 
ATOM     25  C   UNL     1      10.613  -0.302   0.000  1.00  0.00     0.093 A 
ATOM     26  C   UNL     1      10.674   1.196   0.000  1.00  0.00     0.122 A 
BRANCH  23  27
ATOM     27  O   UNL     1       9.223  -2.498   0.000  1.00  0.00    -0.507 OA
ATOM     28  H   UNL     1       0.000   0.000   0.000  1.00  0.00     0.293 HD
ENDBRANCH  23  27
BRANCH  26  29
ATOM     29  O   UNL     1      12.002   1.893   0.000  1.00  0.00    -0.497 OA
ATOM     30  C   UNL     1      13.270   1.091   0.000  1.00  0.00     0.278 C 
ENDBRANCH  26  29
ENDBRANCH  20  21
ENDBRANCH  19  20
ENDBRANCH  17  19
ENDBRANCH  16  17
ENDBRANCH  15  16
ENDBRANCH  14  15
ENDBRANCH  13  14
ENDBRANCH  12  13
ENDBRANCH   1  12
TORSDOF 20
