REMARK SMILES Cc1ccc2c(C)ccc(C(C)C)c2c1
REMARK SMILES IDX 1 1 2 2 3 3 4 4 5 5 6 6 7 7 8 8 9 9 10 10 14 11 15 12 11 13
REMARK SMILES IDX 12 14 13 15
REMARK H PARENT
ROOT
ATOM      1  C   UNL     1      -3.000  -2.771   0.000  1.00  0.00     0.044 C 
ATOM      2  C   UNL     1      -2.250  -1.472   0.000  1.00  0.00    -0.050 A 
ATOM      3  C   UNL     1      -3.000  -0.173   0.000  1.00  0.00     0.004 A 
ATOM      4  C   UNL     1      -2.250   1.126   0.000  1.00  0.00     0.009 A 
ATOM      5  C   UNL     1      -0.750   1.126   0.000  1.00  0.00    -0.015 A 
ATOM      6  C   UNL     1       0.000   2.425   0.000  1.00  0.00    -0.043 A 
ATOM      7  C   UNL     1      -0.750   3.724   0.000  1.00  0.00     0.045 C 
ATOM      8  C   UNL     1       1.500   2.425   0.000  1.00  0.00     0.004 A 
ATOM      9  C   UNL     1       2.250   1.126   0.000  1.00  0.00     0.005 A 
ATOM     10  C   UNL     1       1.500  -0.173   0.000  1.00  0.00    -0.038 A 
ATOM     11  C   UNL     1      -0.000  -0.173   0.000  1.00  0.00    -0.014 A 
ATOM     12  C   UNL     1      -0.750  -1.472   0.000  1.00  0.00     0.012 A 
ENDROOT
BRANCH  10  13
ATOM     13  C   UNL     1       2.250  -1.472   0.000  1.00  0.00     0.013 C 
ATOM     14  C   UNL     1       3.750  -1.472   0.000  1.00  0.00     0.012 C 
ATOM     15  C   UNL     1       1.500  -2.771   0.000  1.00  0.00     0.012 C 
ENDBRANCH  10  13
TORSDOF 1
