REMARK SMILES CC(C)=CCOc1ccc(C(=O)C=Cc2ccccc2)c(O)c1
REMARK SMILES IDX 7 1 8 2 9 3 10 4 21 5 23 6 6 7 5 8 4 9 2 10 1 11 3 12 22 13
REMARK SMILES IDX 11 15 12 16 13 17 14 18 15 19 16 20 20 21 17 22 19 23 18 24
REMARK H PARENT 22 14
ROOT
ATOM      1  C   UNL     1      -2.706  -0.535   0.000  1.00  0.00     0.123 A 
ATOM      2  C   UNL     1      -2.586   0.960   0.000  1.00  0.00     0.047 A 
ATOM      3  C   UNL     1      -1.231   1.604   0.000  1.00  0.00     0.020 A 
ATOM      4  C   UNL     1       0.004   0.752   0.000  1.00  0.00     0.064 A 
ATOM      5  C   UNL     1      -0.116  -0.743   0.000  1.00  0.00     0.130 A 
ATOM      6  C   UNL     1      -1.471  -1.387   0.000  1.00  0.00     0.093 A 
ENDROOT
BRANCH   1   7
ATOM      7  O   UNL     1      -4.061  -1.178   0.000  1.00  0.00    -0.489 OA
BRANCH   7   8
ATOM      8  C   UNL     1      -5.296  -0.327   0.000  1.00  0.00     0.257 C 
BRANCH   8   9
ATOM      9  C   UNL     1      -6.651  -0.970   0.000  1.00  0.00     0.012 C 
BRANCH   9  10
ATOM     10  C   UNL     1      -7.886  -0.119   0.000  1.00  0.00    -0.077 C 
ATOM     11  C   UNL     1      -9.241  -0.762   0.000  1.00  0.00     0.039 C 
ATOM     12  C   UNL     1      -7.765   1.377   0.000  1.00  0.00     0.039 C 
ENDBRANCH   9  10
ENDBRANCH   8   9
ENDBRANCH   7   8
ENDBRANCH   1   7
BRANCH   5  13
ATOM     13  O   UNL     1       1.118  -1.595   0.000  1.00  0.00    -0.507 OA
ATOM     14  H   UNL     1       0.000   0.000   0.000  1.00  0.00     0.293 HD
ENDBRANCH   5  13
BRANCH   4  15
ATOM     15  C   UNL     1       1.359   1.396   0.000  1.00  0.00     0.189 C 
ATOM     16  O   UNL     1       1.479   2.891   0.000  1.00  0.00    -0.289 OA
BRANCH  15  17
ATOM     17  C   UNL     1       2.594   0.544   0.000  1.00  0.00     0.053 C 
BRANCH  17  18
ATOM     18  C   UNL     1       3.949   1.188   0.000  1.00  0.00     0.012 C 
BRANCH  18  19
ATOM     19  C   UNL     1       5.183   0.336   0.000  1.00  0.00    -0.026 A 
ATOM     20  C   UNL     1       5.063  -1.159   0.000  1.00  0.00     0.008 A 
ATOM     21  C   UNL     1       6.538   0.979   0.000  1.00  0.00     0.008 A 
ATOM     22  C   UNL     1       6.298  -2.011   0.000  1.00  0.00     0.001 A 
ATOM     23  C   UNL     1       7.773   0.128   0.000  1.00  0.00     0.001 A 
ATOM     24  C   UNL     1       7.653  -1.367   0.000  1.00  0.00     0.000 A 
ENDBRANCH  18  19
ENDBRANCH  17  18
ENDBRANCH  15  17
ENDBRANCH   4  15
TORSDOF 9
