REMARK SMILES C=CCC1=C[C@@]2(OC)C(=CC1=O)O[C@@H](c1cc(OC)c(OC)c(OC)c1)[C@H]2C
REMARK SMILES IDX 4 1 5 2 6 3 9 4 10 5 11 6 12 7 13 8 14 9 27 10 28 11 3 12
REMARK SMILES IDX 2 13 1 14 7 15 8 16 15 17 16 18 26 19 17 20 23 21 20 22
REMARK SMILES IDX 18 23 19 24 24 25 25 26 21 27 22 28
REMARK H PARENT
ROOT
ATOM      1  C   UNL     1       4.598   0.412   0.000  1.00  0.00     0.003 C 
ATOM      2  C   UNL     1       3.405  -0.497   0.000  1.00  0.00     0.024 C 
ATOM      3  C   UNL     1       2.021   0.082   0.000  1.00  0.00     0.150 C 
ATOM      4  C   UNL     1       1.830   1.569   0.000  1.00  0.00     0.137 C 
ATOM      5  C   UNL     1       3.023   2.479   0.000  1.00  0.00     0.097 C 
ATOM      6  C   UNL     1       4.407   1.900   0.000  1.00  0.00     0.185 C 
ATOM      7  O   UNL     1       5.600   2.809   0.000  1.00  0.00    -0.290 OA
ATOM      8  O   UNL     1       0.356   1.847   0.000  1.00  0.00    -0.486 OA
ATOM      9  C   UNL     1      -0.364   0.531   0.000  1.00  0.00     0.210 C 
ATOM     10  C   UNL     1       0.665  -0.560   0.000  1.00  0.00     0.075 C 
ATOM     11  C   UNL     1       0.387  -2.034   0.000  1.00  0.00     0.016 C 
ENDROOT
BRANCH   1  12
ATOM     12  C   UNL     1       5.982  -0.166   0.000  1.00  0.00     0.066 C 
BRANCH  12  13
ATOM     13  C   UNL     1       6.173  -1.654   0.000  1.00  0.00    -0.030 C 
ATOM     14  C   UNL     1       7.557  -2.232   0.000  1.00  0.00     0.004 C 
ENDBRANCH  12  13
ENDBRANCH   1  12
BRANCH   3  15
ATOM     15  O   UNL     1       2.056  -1.418   0.000  1.00  0.00    -0.366 OA
ATOM     16  C   UNL     1       3.372  -2.138   0.000  1.00  0.00     0.196 C 
ENDBRANCH   3  15
BRANCH   9  17
ATOM     17  C   UNL     1      -1.852   0.340   0.000  1.00  0.00     0.000 A 
ATOM     18  C   UNL     1      -2.761   1.533   0.000  1.00  0.00     0.058 A 
ATOM     19  C   UNL     1      -2.430  -1.044   0.000  1.00  0.00     0.058 A 
ATOM     20  C   UNL     1      -4.249   1.342   0.000  1.00  0.00     0.165 A 
ATOM     21  C   UNL     1      -3.918  -1.235   0.000  1.00  0.00     0.165 A 
ATOM     22  C   UNL     1      -4.827  -0.042   0.000  1.00  0.00     0.203 A 
BRANCH  20  23
ATOM     23  O   UNL     1      -5.158   2.535   0.000  1.00  0.00    -0.493 OA
ATOM     24  C   UNL     1      -4.580   3.919   0.000  1.00  0.00     0.278 C 
ENDBRANCH  20  23
BRANCH  21  25
ATOM     25  O   UNL     1      -4.496  -2.619   0.000  1.00  0.00    -0.493 OA
ATOM     26  C   UNL     1      -3.587  -3.812   0.000  1.00  0.00     0.278 C 
ENDBRANCH  21  25
BRANCH  22  27
ATOM     27  O   UNL     1      -6.315  -0.233   0.000  1.00  0.00    -0.490 OA
ATOM     28  C   UNL     1      -6.894  -1.617   0.000  1.00  0.00     0.278 C 
ENDBRANCH  22  27
ENDBRANCH   9  17
TORSDOF 7
