REMARK SMILES COc1cc2c(cc1OC)[C@]1(O)C(=O)c3ccc4c(c3O[C@@H]1CO2)C=CC(C)(C)O4
REMARK SMILES IDX 3 1 4 2 5 3 6 4 7 5 8 6 11 7 13 8 14 9 15 10 16 11 17 12
REMARK SMILES IDX 18 13 30 14 27 15 28 16 29 17 26 18 25 19 19 20 20 21 21 22
REMARK SMILES IDX 22 23 23 24 24 25 2 26 1 27 9 28 10 29 12 30
REMARK H PARENT 12 31
ROOT
ATOM      1  C   UNL     1      -5.375   0.290   0.000  1.00  0.00     0.164 A 
ATOM      2  C   UNL     1      -4.618   1.585   0.000  1.00  0.00     0.097 A 
ATOM      3  C   UNL     1      -3.118   1.576   0.000  1.00  0.00     0.130 A 
ATOM      4  C   UNL     1      -2.375   0.273   0.000  1.00  0.00     0.041 A 
ATOM      5  C   UNL     1      -3.132  -1.022   0.000  1.00  0.00     0.061 A 
ATOM      6  C   UNL     1      -4.632  -1.014   0.000  1.00  0.00     0.161 A 
ATOM      7  C   UNL     1      -0.875   0.265   0.000  1.00  0.00     0.197 C 
ATOM      8  C   UNL     1      -0.132  -1.038   0.000  1.00  0.00     0.206 C 
ATOM      9  O   UNL     1      -0.890  -2.333   0.000  1.00  0.00    -0.290 OA
ATOM     10  C   UNL     1       1.368  -1.047   0.000  1.00  0.00     0.064 A 
ATOM     11  C   UNL     1       2.110  -2.350   0.000  1.00  0.00     0.020 A 
ATOM     12  C   UNL     1       3.610  -2.358   0.000  1.00  0.00     0.048 A 
ATOM     13  C   UNL     1       4.368  -1.063   0.000  1.00  0.00     0.131 A 
ATOM     14  O   UNL     1       5.867  -1.072   0.000  1.00  0.00    -0.483 OA
ATOM     15  C   UNL     1       6.625   0.223   0.000  1.00  0.00     0.122 C 
ATOM     16  C   UNL     1       7.779   1.181   0.000  1.00  0.00     0.061 C 
ATOM     17  C   UNL     1       7.768  -0.748   0.000  1.00  0.00     0.061 C 
ATOM     18  C   UNL     1       5.882   1.526   0.000  1.00  0.00     0.021 C 
ATOM     19  C   UNL     1       4.382   1.535   0.000  1.00  0.00     0.015 C 
ATOM     20  C   UNL     1       3.625   0.240   0.000  1.00  0.00     0.059 A 
ATOM     21  C   UNL     1       2.125   0.248   0.000  1.00  0.00     0.141 A 
ATOM     22  O   UNL     1       1.382   1.551   0.000  1.00  0.00    -0.481 OA
ATOM     23  C   UNL     1      -0.118   1.560   0.000  1.00  0.00     0.255 C 
ATOM     24  C   UNL     1      -0.861   2.863   0.000  1.00  0.00     0.278 C 
ATOM     25  O   UNL     1      -2.361   2.871   0.000  1.00  0.00    -0.489 OA
ENDROOT
BRANCH   1  26
ATOM     26  O   UNL     1      -6.875   0.298   0.000  1.00  0.00    -0.493 OA
ATOM     27  C   UNL     1      -7.618   1.601   0.000  1.00  0.00     0.278 C 
ENDBRANCH   1  26
BRANCH   6  28
ATOM     28  O   UNL     1      -5.389  -2.308   0.000  1.00  0.00    -0.493 OA
ATOM     29  C   UNL     1      -6.889  -2.300   0.000  1.00  0.00     0.278 C 
ENDBRANCH   6  28
BRANCH   7  30
ATOM     30  O   UNL     1      -1.632  -1.030   0.000  1.00  0.00    -0.373 OA
ATOM     31  H   UNL     1       0.000   0.000   0.000  1.00  0.00     0.212 HD
ENDBRANCH   7  30
TORSDOF 3
