REMARK SMILES COc1cc(O)c2c(=O)c3ccccc3n(C)c2c1
REMARK SMILES IDX 3 1 4 2 5 3 7 4 8 5 9 6 10 7 11 8 12 9 13 10 14 11 15 12
REMARK SMILES IDX 16 13 17 14 18 15 19 16 2 17 1 18 6 19
REMARK H PARENT 6 20
ROOT
ATOM      1  C   UNL     1      -3.279   0.163   0.000  1.00  0.00     0.124 A 
ATOM      2  C   UNL     1      -3.046  -1.319   0.000  1.00  0.00     0.093 A 
ATOM      3  C   UNL     1      -1.646  -1.857   0.000  1.00  0.00     0.132 A 
ATOM      4  C   UNL     1      -0.479  -0.914   0.000  1.00  0.00     0.088 A 
ATOM      5  C   UNL     1       0.921  -1.453   0.000  1.00  0.00     0.200 A 
ATOM      6  O   UNL     1       1.154  -2.935   0.000  1.00  0.00    -0.288 OA
ATOM      7  C   UNL     1       2.087  -0.511   0.000  1.00  0.00     0.046 A 
ATOM      8  C   UNL     1       3.487  -1.050   0.000  1.00  0.00     0.014 A 
ATOM      9  C   UNL     1       4.654  -0.107   0.000  1.00  0.00     0.001 A 
ATOM     10  C   UNL     1       4.421   1.375   0.000  1.00  0.00     0.002 A 
ATOM     11  C   UNL     1       3.021   1.914   0.000  1.00  0.00     0.027 A 
ATOM     12  C   UNL     1       1.854   0.971   0.000  1.00  0.00     0.052 A 
ATOM     13  N   UNL     1       0.455   1.510   0.000  1.00  0.00    -0.343 N 
ATOM     14  C   UNL     1       0.221   2.992   0.000  1.00  0.00     0.150 C 
ATOM     15  C   UNL     1      -0.712   0.567   0.000  1.00  0.00     0.060 A 
ATOM     16  C   UNL     1      -2.112   1.106   0.000  1.00  0.00     0.073 A 
ENDROOT
BRANCH   1  17
ATOM     17  O   UNL     1      -4.678   0.702   0.000  1.00  0.00    -0.497 OA
ATOM     18  C   UNL     1      -4.912   2.184   0.000  1.00  0.00     0.278 C 
ENDBRANCH   1  17
BRANCH   3  19
ATOM     19  O   UNL     1      -1.412  -3.339   0.000  1.00  0.00    -0.507 OA
ATOM     20  H   UNL     1       0.000   0.000   0.000  1.00  0.00     0.293 HD
ENDBRANCH   3  19
TORSDOF 2
