REMARK SMILES C/C=C(\CO)[C@@H]1C[C@H]2c3[nH]c4ccccc4c3CCN2C=C1C(=O)OC
REMARK SMILES IDX 6 1 7 2 8 3 9 4 17 5 18 6 19 7 20 8 21 9 22 10 16 11 15 12
REMARK SMILES IDX 14 13 13 14 12 15 11 16 10 17 3 19 2 20 1 21 4 22 5 23 23 25
REMARK SMILES IDX 24 26 25 27 26 28
REMARK H PARENT 10 18 5 24
ROOT
ATOM      1  C   UNL     1      -2.010   0.512   0.000  1.00  0.00     0.058 C 
ATOM      2  C   UNL     1      -0.547   0.844   0.000  1.00  0.00     0.044 C 
ATOM      3  C   UNL     1       0.471  -0.258   0.000  1.00  0.00     0.130 C 
ATOM      4  C   UNL     1       1.934   0.073   0.000  1.00  0.00     0.042 A 
ATOM      5  C   UNL     1       2.953  -1.028   0.000  1.00  0.00    -0.015 A 
ATOM      6  C   UNL     1       2.508  -2.461   0.000  1.00  0.00     0.059 C 
ATOM      7  C   UNL     1       1.045  -2.792   0.000  1.00  0.00     0.121 C 
ATOM      8  N   UNL     1       0.027  -1.690   0.000  1.00  0.00    -0.368 N 
ATOM      9  C   UNL     1      -1.436  -2.022   0.000  1.00  0.00     0.093 C 
ATOM     10  C   UNL     1      -2.455  -0.920   0.000  1.00  0.00     0.060 C 
ATOM     11  C   UNL     1       4.315  -0.400   0.000  1.00  0.00     0.003 A 
ATOM     12  C   UNL     1       5.693  -0.992   0.000  1.00  0.00     0.010 A 
ATOM     13  C   UNL     1       6.895  -0.095   0.000  1.00  0.00     0.001 A 
ATOM     14  C   UNL     1       6.718   1.395   0.000  1.00  0.00     0.002 A 
ATOM     15  C   UNL     1       5.340   1.987   0.000  1.00  0.00     0.026 A 
ATOM     16  C   UNL     1       4.138   1.090   0.000  1.00  0.00     0.046 A 
ATOM     17  N   UNL     1       2.667   1.382   0.000  1.00  0.00    -0.356 N 
ATOM     18  H   UNL     1       0.000   0.000   0.000  1.00  0.00     0.166 HD
ENDROOT
BRANCH   1  19
ATOM     19  C   UNL     1      -3.028   1.614   0.000  1.00  0.00    -0.041 C 
BRANCH  19  20
ATOM     20  C   UNL     1      -4.491   1.283   0.000  1.00  0.00    -0.028 C 
ATOM     21  C   UNL     1      -5.510   2.384   0.000  1.00  0.00     0.035 C 
ENDBRANCH  19  20
BRANCH  19  22
ATOM     22  C   UNL     1      -2.584   3.046   0.000  1.00  0.00     0.187 C 
BRANCH  22  23
ATOM     23  O   UNL     1      -3.602   4.148   0.000  1.00  0.00    -0.392 OA
ATOM     24  H   UNL     1       0.000   0.000   0.000  1.00  0.00     0.211 HD
ENDBRANCH  22  23
ENDBRANCH  19  22
ENDBRANCH   1  19
BRANCH  10  25
ATOM     25  C   UNL     1      -3.918  -1.251   0.000  1.00  0.00     0.335 C 
ATOM     26  O   UNL     1      -4.936  -0.150   0.000  1.00  0.00    -0.247 OA
BRANCH  25  27
ATOM     27  O   UNL     1      -4.362  -2.684   0.000  1.00  0.00    -0.466 OA
ATOM     28  C   UNL     1      -5.825  -3.015   0.000  1.00  0.00     0.282 C 
ENDBRANCH  25  27
ENDBRANCH  10  25
TORSDOF 6
