REMARK SMILES C=CCc1cc2c(c(OC)c1OC)OCO2
REMARK SMILES IDX 4 1 5 2 6 3 7 4 14 5 15 6 16 7 8 8 11 9 3 10 2 11 1 12 12 13
REMARK SMILES IDX 13 14 9 15 10 16
REMARK H PARENT
ROOT
ATOM      1  C   UNL     1       1.118   1.014   0.000  1.00  0.00     0.006 A 
ATOM      2  C   UNL     1      -0.003   2.011   0.000  1.00  0.00     0.058 A 
ATOM      3  C   UNL     1      -1.427   1.538   0.000  1.00  0.00     0.170 A 
ATOM      4  C   UNL     1      -1.729   0.069   0.000  1.00  0.00     0.211 A 
ATOM      5  O   UNL     1      -3.220  -0.098   0.000  1.00  0.00    -0.450 OA
ATOM      6  C   UNL     1      -3.839   1.268   0.000  1.00  0.00     0.468 C 
ATOM      7  O   UNL     1      -2.730   2.279   0.000  1.00  0.00    -0.453 OA
ATOM      8  C   UNL     1      -0.608  -0.928   0.000  1.00  0.00     0.207 A 
ATOM      9  C   UNL     1       0.816  -0.455   0.000  1.00  0.00     0.168 A 
ENDROOT
BRANCH   1  10
ATOM     10  C   UNL     1       2.542   1.487   0.000  1.00  0.00     0.066 C 
BRANCH  10  11
ATOM     11  C   UNL     1       3.663   0.491   0.000  1.00  0.00    -0.030 C 
ATOM     12  C   UNL     1       5.087   0.963   0.000  1.00  0.00     0.004 C 
ENDBRANCH  10  11
ENDBRANCH   1  10
BRANCH   9  13
ATOM     13  O   UNL     1       1.937  -1.451   0.000  1.00  0.00    -0.492 OA
ATOM     14  C   UNL     1       1.635  -2.921   0.000  1.00  0.00     0.278 C 
ENDBRANCH   9  13
BRANCH   8  15
ATOM     15  O   UNL     1      -0.910  -2.397   0.000  1.00  0.00    -0.490 OA
ATOM     16  C   UNL     1      -2.333  -2.870   0.000  1.00  0.00     0.278 C 
ENDBRANCH   8  15
TORSDOF 4
