REMARK SMILES C=CCc1cc(OC)c2c(c1)O[C@H](c1cc(OC)c(OC)c(OC)c1)[C@@H](C)O2
REMARK SMILES IDX 4 1 5 2 6 3 9 4 28 5 26 6 27 7 13 8 12 9 10 10 11 11 3 12
REMARK SMILES IDX 2 13 1 14 7 15 8 16 14 17 15 18 25 19 16 20 22 21 19 22
REMARK SMILES IDX 17 23 18 24 23 25 24 26 20 27 21 28
REMARK H PARENT
ROOT
ATOM      1  C   UNL     1      -4.522  -1.057   0.000  1.00  0.00    -0.037 A 
ATOM      2  C   UNL     1      -4.931   0.387   0.000  1.00  0.00     0.054 A 
ATOM      3  C   UNL     1      -3.885   1.462   0.000  1.00  0.00     0.164 A 
ATOM      4  C   UNL     1      -2.431   1.094   0.000  1.00  0.00     0.204 A 
ATOM      5  O   UNL     1      -1.385   2.169   0.000  1.00  0.00    -0.479 OA
ATOM      6  C   UNL     1       0.069   1.801   0.000  1.00  0.00     0.216 C 
ATOM      7  C   UNL     1       1.115   2.876   0.000  1.00  0.00     0.057 C 
ATOM      8  C   UNL     1       0.477   0.358   0.000  1.00  0.00     0.244 C 
ATOM      9  O   UNL     1      -0.568  -0.718   0.000  1.00  0.00    -0.478 OA
ATOM     10  C   UNL     1      -2.023  -0.349   0.000  1.00  0.00     0.166 A 
ATOM     11  C   UNL     1      -3.068  -1.425   0.000  1.00  0.00     0.054 A 
ENDROOT
BRANCH   1  12
ATOM     12  C   UNL     1      -5.568  -2.132   0.000  1.00  0.00     0.062 C 
BRANCH  12  13
ATOM     13  C   UNL     1      -7.022  -1.764   0.000  1.00  0.00    -0.030 C 
ATOM     14  C   UNL     1      -8.068  -2.839   0.000  1.00  0.00     0.004 C 
ENDBRANCH  12  13
ENDBRANCH   1  12
BRANCH   3  15
ATOM     15  O   UNL     1      -4.293   2.905   0.000  1.00  0.00    -0.493 OA
ATOM     16  C   UNL     1      -5.748   3.273   0.000  1.00  0.00     0.278 C 
ENDBRANCH   3  15
BRANCH   8  17
ATOM     17  C   UNL     1       1.931  -0.010   0.000  1.00  0.00     0.004 A 
ATOM     18  C   UNL     1       2.340  -1.454   0.000  1.00  0.00     0.058 A 
ATOM     19  C   UNL     1       2.977   1.065   0.000  1.00  0.00     0.058 A 
ATOM     20  C   UNL     1       3.794  -1.822   0.000  1.00  0.00     0.165 A 
ATOM     21  C   UNL     1       4.431   0.697   0.000  1.00  0.00     0.165 A 
ATOM     22  C   UNL     1       4.840  -0.746   0.000  1.00  0.00     0.203 A 
BRANCH  20  23
ATOM     23  O   UNL     1       4.202  -3.265   0.000  1.00  0.00    -0.493 OA
ATOM     24  C   UNL     1       3.156  -4.340   0.000  1.00  0.00     0.278 C 
ENDBRANCH  20  23
BRANCH  21  25
ATOM     25  O   UNL     1       5.477   1.772   0.000  1.00  0.00    -0.493 OA
ATOM     26  C   UNL     1       5.069   3.216   0.000  1.00  0.00     0.278 C 
ENDBRANCH  21  25
BRANCH  22  27
ATOM     27  O   UNL     1       6.294  -1.114   0.000  1.00  0.00    -0.490 OA
ATOM     28  C   UNL     1       7.340  -0.039   0.000  1.00  0.00     0.278 C 
ENDBRANCH  22  27
ENDBRANCH   8  17
TORSDOF 7
