REMARK SMILES COc1cc(CCC(=O)N2CCCCC2=O)cc(OC)c1OC
REMARK SMILES IDX 6 1 5 2 3 3 4 4 21 5 18 6 17 7 2 8 1 9 22 10 23 11 19 12
REMARK SMILES IDX 20 13 7 14 8 15 9 16 10 17 11 18 15 19 12 20 14 21 13 22
REMARK SMILES IDX 16 23
REMARK H PARENT
ROOT
ATOM      1  C   UNL     1      -0.207  -1.256   0.000  1.00  0.00     0.045 C 
ENDROOT
BRANCH   1   2
ATOM      2  C   UNL     1       1.172  -0.666   0.000  1.00  0.00    -0.040 A 
ATOM      3  C   UNL     1       3.751  -0.975   0.000  1.00  0.00     0.164 A 
ATOM      4  C   UNL     1       2.372  -1.565   0.000  1.00  0.00     0.054 A 
ATOM      5  C   UNL     1       3.930   0.514   0.000  1.00  0.00     0.203 A 
ATOM      6  C   UNL     1       2.729   1.413   0.000  1.00  0.00     0.164 A 
ATOM      7  C   UNL     1       1.350   0.823   0.000  1.00  0.00     0.054 A 
BRANCH   3   8
ATOM      8  O   UNL     1       4.952  -1.875   0.000  1.00  0.00    -0.493 OA
ATOM      9  C   UNL     1       4.773  -3.364   0.000  1.00  0.00     0.278 C 
ENDBRANCH   3   8
BRANCH   5  10
ATOM     10  O   UNL     1       5.309   1.104   0.000  1.00  0.00    -0.490 OA
ATOM     11  C   UNL     1       6.509   0.205   0.000  1.00  0.00     0.278 C 
ENDBRANCH   5  10
BRANCH   6  12
ATOM     12  O   UNL     1       2.908   2.903   0.000  1.00  0.00    -0.493 OA
ATOM     13  C   UNL     1       4.287   3.493   0.000  1.00  0.00     0.278 C 
ENDBRANCH   6  12
ENDBRANCH   1   2
BRANCH   1  14
ATOM     14  C   UNL     1      -1.408  -0.357   0.000  1.00  0.00     0.105 C 
BRANCH  14  15
ATOM     15  C   UNL     1      -2.787  -0.947   0.000  1.00  0.00     0.229 C 
ATOM     16  O   UNL     1      -2.966  -2.436   0.000  1.00  0.00    -0.274 OA
BRANCH  15  17
ATOM     17  N   UNL     1      -3.988  -0.047   0.000  1.00  0.00    -0.283 N 
ATOM     18  C   UNL     1      -3.809   1.442   0.000  1.00  0.00     0.128 C 
ATOM     19  C   UNL     1      -5.367  -0.637   0.000  1.00  0.00     0.229 C 
ATOM     20  C   UNL     1      -5.010   2.341   0.000  1.00  0.00     0.023 C 
ATOM     21  C   UNL     1      -6.567   0.262   0.000  1.00  0.00     0.101 C 
ATOM     22  C   UNL     1      -6.389   1.751   0.000  1.00  0.00     0.012 C 
ATOM     23  O   UNL     1      -5.545  -2.127   0.000  1.00  0.00    -0.274 OA
ENDBRANCH  15  17
ENDBRANCH  14  15
ENDBRANCH   1  14
TORSDOF 7
