REMARK SMILES C[C@H]1CC2OC(=O)[C@@]3(C)[C@@H]2[C@H](C[C@@]2(C)OC1=CC2=O)O[C@]3(O)[C@@]1(C)CO1
REMARK SMILES IDX 12 1 13 2 16 3 15 4 17 5 18 6 14 7 19 8 2 9 1 10 11 12 10 13
REMARK SMILES IDX 20 14 8 15 4 16 21 17 6 18 5 19 9 20 7 21 3 22 22 24 23 26
REMARK SMILES IDX 25 27 26 28 24 29
REMARK H PARENT 22 25
REMARK Flexibility Score:   14.900
ROOT
ATOM      1  C   UNL     1      -1.075   1.660   0.000  1.00  0.00     0.089 C 
ENDROOT
BRANCH   1   2
ATOM      2  C   UNL     1      -2.574   1.605   0.000  1.00  0.00     0.170 C 
ATOM      3  C   UNL     1      -3.710  -0.539   0.000  1.00  0.00     0.104 C 
ATOM      4  O   UNL     1      -2.363   0.120   0.000  1.00  0.00    -0.483 OA
ATOM      5  C   UNL     1      -4.754   0.538   0.000  1.00  0.00     0.093 C 
ATOM      6  C   UNL     1      -4.052   1.863   0.000  1.00  0.00     0.202 C 
ATOM      7  C   UNL     1      -1.497   2.649   0.000  1.00  0.00     0.066 C 
ATOM      8  O   UNL     1      -4.712   3.210   0.000  1.00  0.00    -0.290 OA
BRANCH   3   9
ATOM      9  C   UNL     1      -3.096  -2.157   0.000  1.00  0.00     0.056 CG0
ATOM     10  C   UNL     1      -4.018  -3.340   0.000  1.00  0.00     0.016 C 
ATOM     11  G   UNL     1      -1.669  -2.618   0.000  1.00  0.00     0.000 G0
ENDBRANCH   3   9
ENDBRANCH   1   2
BRANCH   1  12
ATOM     12  C   UNL     1       0.109   0.739   0.000  1.00  0.00     0.134 C 
ATOM     13  C   UNL     1       0.423  -0.728   0.000  1.00  0.00     0.082 C 
ATOM     14  O   UNL     1       1.432   1.445   0.000  1.00  0.00    -0.342 OA
ATOM     15  C   UNL     1       1.901  -0.986   0.000  1.00  0.00     0.130 C 
ATOM     16  C   UNL     1      -0.279  -2.054   0.000  1.00  0.00     0.184 C 
ATOM     17  C   UNL     1       2.513   0.405   0.000  1.00  0.00     0.214 C 
ATOM     18  C   UNL     1       2.112  -2.471   0.000  1.00  0.00     0.318 C 
ATOM     19  O   UNL     1       0.765  -3.131   0.000  1.00  0.00    -0.461 OA
ATOM     20  C   UNL     1       2.590  -0.586   0.000  1.00  0.00     0.030 C 
ATOM     21  O   UNL     1       3.438  -3.173   0.000  1.00  0.00    -0.251 OA
BRANCH  16  22
ATOM     22  C   UNL     1      -1.669  -2.618   0.000  1.00  0.00     0.057 CG0
ATOM     23  G   UNL     1      -3.096  -2.157   0.000  1.00  0.00     0.000 G0
ENDBRANCH  16  22
BRANCH  17  24
ATOM     24  O   UNL     1       3.189  -0.016   0.000  1.00  0.00    -0.362 OA
ATOM     25  H   UNL     1       0.000   0.000   0.000  1.00  0.00     0.214 HD
ENDBRANCH  17  24
BRANCH  17  26
ATOM     26  C   UNL     1       3.434   1.589   0.000  1.00  0.00     0.143 C 
ATOM     27  C   UNL     1       4.705   2.386   0.000  1.00  0.00     0.202 C 
ATOM     28  O   UNL     1       4.760   0.887   0.000  1.00  0.00    -0.364 OA
ATOM     29  C   UNL     1       2.429   2.702   0.000  1.00  0.00     0.051 C 
ENDBRANCH  17  26
ENDBRANCH   1  12
TORSDOF 2
