REMARK SMILES COc1c(C(C)C)cc2c(c1OC)CC1=CCCC(C)(C)[C@@H]1CC2
REMARK SMILES IDX 3 1 4 2 8 3 9 4 10 5 11 6 2 7 1 8 5 9 6 10 7 11 12 12 13 13
REMARK SMILES IDX 14 14 15 15 22 16 16 17 19 18 17 19 18 20 20 21 21 22 24 24
REMARK SMILES IDX 23 25
REMARK H PARENT
REMARK Flexibility Score:   23.900
ROOT
ATOM      1  C   UNL     1      -2.920  -0.381   0.000  1.00  0.00     0.164 A 
ATOM      2  C   UNL     1      -2.940   1.119   0.000  1.00  0.00     0.001 A 
ATOM      3  C   UNL     1      -1.651   1.886   0.000  1.00  0.00     0.012 A 
ATOM      4  C   UNL     1      -0.343   1.153   0.000  1.00  0.00    -0.040 A 
ATOM      5  C   UNL     1      -0.323  -0.346   0.000  1.00  0.00     0.005 A 
ATOM      6  C   UNL     1      -1.611  -1.114   0.000  1.00  0.00     0.164 A 
ENDROOT
BRANCH   1   7
ATOM      7  O   UNL     1      -4.209  -1.148   0.000  1.00  0.00    -0.493 OA
ATOM      8  C   UNL     1      -4.189  -2.648   0.000  1.00  0.00     0.278 C 
ENDBRANCH   1   7
BRANCH   2   9
ATOM      9  C   UNL     1      -4.249   1.851   0.000  1.00  0.00     0.017 C 
ATOM     10  C   UNL     1      -4.269   3.351   0.000  1.00  0.00     0.012 C 
ATOM     11  C   UNL     1      -5.538   1.084   0.000  1.00  0.00     0.012 C 
ENDBRANCH   2   9
BRANCH   6  12
ATOM     12  O   UNL     1      -1.591  -2.614   0.000  1.00  0.00    -0.493 OA
ATOM     13  C   UNL     1      -2.880  -3.381   0.000  1.00  0.00     0.278 C 
ENDBRANCH   6  12
BRANCH   5  14
ATOM     14  C   UNL     1       0.863  -1.266   0.000  1.00  0.00     0.070 C 
BRANCH  14  15
ATOM     15  C   UNL     1       2.320  -0.913   0.000  1.00  0.00    -0.066 C 
ATOM     16  C   UNL     1       2.953   0.447   0.000  1.00  0.00     0.021 CG0
ATOM     17  C   UNL     1       3.182  -2.141   0.000  1.00  0.00    -0.027 C 
ATOM     18  C   UNL     1       4.447   0.579   0.000  1.00  0.00    -0.029 C 
ATOM     19  C   UNL     1       4.676  -2.009   0.000  1.00  0.00     0.028 C 
ATOM     20  C   UNL     1       5.309  -0.648   0.000  1.00  0.00     0.011 C 
ATOM     21  C   UNL     1       4.058   2.028   0.000  1.00  0.00     0.012 C 
ATOM     22  C   UNL     1       5.806   1.215   0.000  1.00  0.00     0.012 C 
ATOM     23  G   UNL     1       2.284   1.790   0.000  1.00  0.00     0.000 G0
ENDBRANCH  14  15
ENDBRANCH   5  14
BRANCH   4  24
ATOM     24  C   UNL     1       0.818   2.104   0.000  1.00  0.00     0.036 C 
BRANCH  24  25
ATOM     25  C   UNL     1       2.284   1.790   0.000  1.00  0.00     0.013 CG0
ATOM     26  G   UNL     1       2.953   0.447   0.000  1.00  0.00     0.000 G0
ENDBRANCH  24  25
ENDBRANCH   4  24
TORSDOF 3
