REMARK SMILES COc1cc(O)c2c(=O)c(OC)c(-c3cc(O)c(OC)cc3O)oc2c1
REMARK SMILES IDX 3 1 4 2 5 3 7 4 8 5 9 6 10 7 13 8 24 9 25 10 26 11 2 12 1 13
REMARK SMILES IDX 6 14 14 16 15 17 22 18 16 19 21 20 18 21 23 22 17 24 19 26
REMARK SMILES IDX 20 27 11 28 12 29
REMARK H PARENT 6 15 23 23 17 25
ROOT
ATOM      1  C   UNL     1      -4.569  -1.460   0.000  1.00  0.00     0.126 A 
ATOM      2  C   UNL     1      -5.043  -0.036   0.000  1.00  0.00     0.093 A 
ATOM      3  C   UNL     1      -4.047   1.086   0.000  1.00  0.00     0.134 A 
ATOM      4  C   UNL     1      -2.578   0.784   0.000  1.00  0.00     0.111 A 
ATOM      5  C   UNL     1      -1.582   1.906   0.000  1.00  0.00     0.239 A 
ATOM      6  O   UNL     1      -2.055   3.329   0.000  1.00  0.00    -0.285 OA
ATOM      7  C   UNL     1      -0.113   1.604   0.000  1.00  0.00     0.211 A 
ATOM      8  C   UNL     1       0.361   0.181   0.000  1.00  0.00     0.184 A 
ATOM      9  O   UNL     1      -0.635  -0.941   0.000  1.00  0.00    -0.451 OA
ATOM     10  C   UNL     1      -2.104  -0.639   0.000  1.00  0.00     0.146 A 
ATOM     11  C   UNL     1      -3.100  -1.761   0.000  1.00  0.00     0.094 A 
ENDROOT
BRANCH   1  12
ATOM     12  O   UNL     1      -5.565  -2.581   0.000  1.00  0.00    -0.496 OA
ATOM     13  C   UNL     1      -7.035  -2.280   0.000  1.00  0.00     0.278 C 
ENDBRANCH   1  12
BRANCH   3  14
ATOM     14  O   UNL     1      -4.521   2.509   0.000  1.00  0.00    -0.507 OA
ATOM     15  H   UNL     1       0.000   0.000   0.000  1.00  0.00     0.293 HD
ENDBRANCH   3  14
BRANCH   8  16
ATOM     16  C   UNL     1       1.830  -0.121   0.000  1.00  0.00     0.067 A 
ATOM     17  C   UNL     1       2.826   1.001   0.000  1.00  0.00     0.066 A 
ATOM     18  C   UNL     1       2.304  -1.544   0.000  1.00  0.00     0.130 A 
ATOM     19  C   UNL     1       4.296   0.700   0.000  1.00  0.00     0.158 A 
ATOM     20  C   UNL     1       3.773  -1.845   0.000  1.00  0.00     0.097 A 
ATOM     21  C   UNL     1       4.769  -0.724   0.000  1.00  0.00     0.164 A 
BRANCH  18  22
ATOM     22  O   UNL     1       1.308  -2.666   0.000  1.00  0.00    -0.507 OA
ATOM     23  H   UNL     1       0.000   0.000   0.000  1.00  0.00     0.293 HD
ENDBRANCH  18  22
BRANCH  19  24
ATOM     24  O   UNL     1       5.292   1.821   0.000  1.00  0.00    -0.504 OA
ATOM     25  H   UNL     1       0.000   0.000   0.000  1.00  0.00     0.293 HD
ENDBRANCH  19  24
BRANCH  21  26
ATOM     26  O   UNL     1       6.239  -1.025   0.000  1.00  0.00    -0.493 OA
ATOM     27  C   UNL     1       6.712  -2.449   0.000  1.00  0.00     0.278 C 
ENDBRANCH  21  26
ENDBRANCH   8  16
BRANCH   7  28
ATOM     28  O   UNL     1       0.883   2.726   0.000  1.00  0.00    -0.490 OA
ATOM     29  C   UNL     1       2.353   2.424   0.000  1.00  0.00     0.278 C 
ENDBRANCH   7  28
TORSDOF 7
