REMARK SMILES C=C1CCC2[C@H]3C1[C@]2(C)CCCC3(C)C
REMARK SMILES IDX 1 1 2 2 3 3 4 4 5 5 6 6 7 7 8 8 9 9 13 10 14 11 15 12 12 13
REMARK SMILES IDX 10 15 11 16
REMARK H PARENT
REMARK Flexibility Score:    3.900
ROOT
ATOM      1  C   UNL     1       3.298  -0.693   0.000  1.00  0.00     0.008 C 
ATOM      2  C   UNL     1       2.151   0.274   0.000  1.00  0.00    -0.073 C 
ATOM      3  C   UNL     1       2.416   1.751   0.000  1.00  0.00     0.031 C 
ATOM      4  C   UNL     1       1.270   2.718   0.000  1.00  0.00     0.009 C 
ATOM      5  C   UNL     1      -0.141   2.209   0.000  1.00  0.00     0.000 C 
ATOM      6  C   UNL     1      -0.406   0.733   0.000  1.00  0.00     0.006 C 
ATOM      7  C   UNL     1       0.740  -0.235   0.000  1.00  0.00     0.024 C 
ATOM      8  C   UNL     1       0.699  -1.734   0.000  1.00  0.00    -0.023 C 
ATOM      9  C   UNL     1       2.032  -2.422   0.000  1.00  0.00     0.012 C 
ENDROOT
BRANCH   6  10
ATOM     10  C   UNL     1      -1.877   0.440   0.000  1.00  0.00    -0.032 C 
ATOM     11  C   UNL     1      -3.330   0.814   0.000  1.00  0.00     0.011 C 
ATOM     12  C   UNL     1      -1.835   1.939   0.000  1.00  0.00     0.011 C 
BRANCH  10  13
ATOM     13  C   UNL     1      -2.565  -0.893   0.000  1.00  0.00     0.007 CG0
ATOM     14  G   UNL     1      -1.952  -2.262   0.000  1.00  0.00     0.000 G0
ENDBRANCH  10  13
ENDBRANCH   6  10
BRANCH   8  15
ATOM     15  C   UNL     1      -0.499  -2.637   0.000  1.00  0.00     0.008 C 
BRANCH  15  16
ATOM     16  C   UNL     1      -1.952  -2.262   0.000  1.00  0.00     0.001 CG0
ATOM     17  G   UNL     1      -2.565  -0.893   0.000  1.00  0.00     0.000 G0
ENDBRANCH  15  16
ENDBRANCH   8  15
TORSDOF 0
