REMARK SMILES CC(C)CC(=O)O[C@@H]1[C@@H](O)c2c(ccc3ccc(=O)oc23)OC1(C)C
REMARK SMILES IDX 5 1 6 2 4 3 2 4 1 5 3 6 7 7 8 8 9 9 23 10 11 11 22 12 12 13
REMARK SMILES IDX 21 14 13 15 15 16 20 17 14 18 16 19 18 20 17 21 24 22 25 23
REMARK SMILES IDX 19 24 10 25
REMARK H PARENT 10 26
ROOT
ATOM      1  C   UNL     1      -3.568  -0.559   0.000  1.00  0.00     0.306 C 
ATOM      2  O   UNL     1      -3.842   0.915   0.000  1.00  0.00    -0.252 OA
ENDROOT
BRANCH   1   3
ATOM      3  C   UNL     1      -4.707  -1.535   0.000  1.00  0.00     0.125 C 
BRANCH   3   4
ATOM      4  C   UNL     1      -6.122  -1.036   0.000  1.00  0.00    -0.006 C 
ATOM      5  C   UNL     1      -7.261  -2.011   0.000  1.00  0.00     0.008 C 
ATOM      6  C   UNL     1      -6.397   0.439   0.000  1.00  0.00     0.008 C 
ENDBRANCH   3   4
ENDBRANCH   1   3
BRANCH   1   7
ATOM      7  O   UNL     1      -2.153  -1.058   0.000  1.00  0.00    -0.455 OA
BRANCH   7   8
ATOM      8  C   UNL     1      -1.014  -0.083   0.000  1.00  0.00     0.253 C 
ATOM      9  C   UNL     1       0.401  -0.582   0.000  1.00  0.00     0.197 C 
ATOM     10  C   UNL     1      -1.288   1.391   0.000  1.00  0.00     0.143 C 
ATOM     11  C   UNL     1       1.541   0.393   0.000  1.00  0.00     0.070 A 
ATOM     12  O   UNL     1      -0.149   2.367   0.000  1.00  0.00    -0.483 OA
ATOM     13  C   UNL     1       1.266   1.868   0.000  1.00  0.00     0.130 A 
ATOM     14  C   UNL     1       2.955  -0.106   0.000  1.00  0.00     0.148 A 
ATOM     15  C   UNL     1       2.405   2.843   0.000  1.00  0.00     0.048 A 
ATOM     16  C   UNL     1       4.095   0.869   0.000  1.00  0.00     0.018 A 
ATOM     17  O   UNL     1       3.230  -1.581   0.000  1.00  0.00    -0.422 OA
ATOM     18  C   UNL     1       3.820   2.344   0.000  1.00  0.00     0.016 A 
ATOM     19  C   UNL     1       5.509   0.370   0.000  1.00  0.00     0.019 A 
ATOM     20  C   UNL     1       4.644  -2.080   0.000  1.00  0.00     0.336 A 
ATOM     21  C   UNL     1       5.784  -1.105   0.000  1.00  0.00     0.094 A 
ATOM     22  C   UNL     1      -2.051   2.683   0.000  1.00  0.00     0.060 C 
ATOM     23  C   UNL     1      -2.693   0.865   0.000  1.00  0.00     0.060 C 
ATOM     24  O   UNL     1       4.919  -3.554   0.000  1.00  0.00    -0.246 OA
BRANCH   9  25
ATOM     25  O   UNL     1       0.676  -2.057   0.000  1.00  0.00    -0.384 OA
ATOM     26  H   UNL     1       0.000   0.000   0.000  1.00  0.00     0.211 HD
ENDBRANCH   9  25
ENDBRANCH   7   8
ENDBRANCH   1   7
TORSDOF 5
