REMARK SMILES C=C1CCCC(C)(C)[C@@]12CC=C(C)CC2
REMARK SMILES IDX 1 1 2 2 3 3 4 4 5 5 6 6 7 7 8 8 9 9 10 10 11 11 12 12 13 13
REMARK SMILES IDX 14 14 15 15
REMARK H PARENT
ROOT
ATOM      1  C   UNL     1      -0.041  -2.765   0.000  1.00  0.00     0.008 C 
ATOM      2  C   UNL     1      -0.894  -1.531   0.000  1.00  0.00    -0.070 C 
ATOM      3  C   UNL     1      -2.389  -1.653   0.000  1.00  0.00     0.031 C 
ATOM      4  C   UNL     1      -3.242  -0.419   0.000  1.00  0.00     0.005 C 
ATOM      5  C   UNL     1      -2.600   0.936   0.000  1.00  0.00     0.008 C 
ATOM      6  C   UNL     1      -1.105   1.058   0.000  1.00  0.00    -0.026 C 
ATOM      7  C   UNL     1      -1.485   2.509   0.000  1.00  0.00     0.012 C 
ATOM      8  C   UNL     1       0.066   1.996   0.000  1.00  0.00     0.012 C 
ATOM      9  C   UNL     1      -0.252  -0.175   0.000  1.00  0.00    -0.000 C 
ATOM     10  C   UNL     1       0.601  -1.409   0.000  1.00  0.00     0.039 C 
ATOM     11  C   UNL     1       2.096  -1.287   0.000  1.00  0.00    -0.027 C 
ATOM     12  C   UNL     1       2.738   0.069   0.000  1.00  0.00    -0.077 C 
ATOM     13  C   UNL     1       4.233   0.191   0.000  1.00  0.00     0.039 C 
ATOM     14  C   UNL     1       1.885   1.302   0.000  1.00  0.00     0.031 C 
ATOM     15  C   UNL     1       0.390   1.180   0.000  1.00  0.00     0.017 C 
ENDROOT
TORSDOF 0
