REMARK SMILES CC1(C)[C@H](O)[C@@H](O)C[C@]2(C)[C@@H]1CC[C@@]13C[C@@H](CC[C@H]12)[C@](C)(O)C3
REMARK SMILES IDX 1 1 2 2 3 3 4 4 6 5 8 6 9 7 10 8 11 9 12 10 13 11 14 12
REMARK SMILES IDX 15 13 16 14 17 15 18 16 19 17 20 18 21 19 23 20 5 21 7 23
REMARK SMILES IDX 22 25
REMARK H PARENT 5 22 7 24 22 26
ROOT
ATOM      1  C   UNL     1       2.432   2.569   0.000  1.00  0.00     0.014 C 
ATOM      2  C   UNL     1       2.902   1.145   0.000  1.00  0.00    -0.003 C 
ATOM      3  C   UNL     1       4.223   1.855   0.000  1.00  0.00     0.014 C 
ATOM      4  C   UNL     1       3.831  -0.033   0.000  1.00  0.00     0.149 C 
ATOM      5  C   UNL     1       3.275  -1.426   0.000  1.00  0.00     0.144 C 
ATOM      6  C   UNL     1       1.791  -1.642   0.000  1.00  0.00     0.042 C 
ATOM      7  C   UNL     1       0.862  -0.464   0.000  1.00  0.00    -0.023 C 
ATOM      8  C   UNL     1       0.306  -1.857   0.000  1.00  0.00     0.012 C 
ATOM      9  C   UNL     1       1.418   0.929   0.000  1.00  0.00     0.004 C 
ATOM     10  C   UNL     1       0.489   2.107   0.000  1.00  0.00     0.005 C 
ATOM     11  C   UNL     1      -0.996   1.891   0.000  1.00  0.00     0.008 C 
ATOM     12  C   UNL     1      -1.551   0.498   0.000  1.00  0.00    -0.023 C 
ATOM     13  C   UNL     1      -3.036   0.283   0.000  1.00  0.00     0.014 C 
ATOM     14  C   UNL     1      -3.591  -1.111   0.000  1.00  0.00     0.021 C 
ATOM     15  C   UNL     1      -2.663  -2.288   0.000  1.00  0.00     0.007 C 
ATOM     16  C   UNL     1      -1.178  -2.073   0.000  1.00  0.00     0.005 C 
ATOM     17  C   UNL     1      -0.623  -0.680   0.000  1.00  0.00     0.002 C 
ATOM     18  C   UNL     1      -4.111   0.296   0.000  1.00  0.00     0.065 C 
ATOM     19  C   UNL     1      -5.456  -0.367   0.000  1.00  0.00     0.042 C 
ATOM     20  C   UNL     1      -2.933   1.225   0.000  1.00  0.00     0.042 C 
ENDROOT
BRANCH   4  21
ATOM     21  O   UNL     1       5.315   0.182   0.000  1.00  0.00    -0.390 OA
ATOM     22  H   UNL     1       0.000   0.000   0.000  1.00  0.00     0.211 HD
ENDBRANCH   4  21
BRANCH   5  23
ATOM     23  O   UNL     1       4.204  -2.604   0.000  1.00  0.00    -0.390 OA
ATOM     24  H   UNL     1       0.000   0.000   0.000  1.00  0.00     0.211 HD
ENDBRANCH   5  23
BRANCH  18  25
ATOM     25  O   UNL     1      -4.911   1.565   0.000  1.00  0.00    -0.390 OA
ATOM     26  H   UNL     1       0.000   0.000   0.000  1.00  0.00     0.211 HD
ENDBRANCH  18  25
TORSDOF 3
