REMARK SMILES CC(=O)O[C@@H]1[C@@H](/C=C/c2ccccc2)O[C@@H](C/C=C/[C@H]2CC=CC(=O)O2)C[C@H]1OC(C)=O
REMARK SMILES IDX 17 1 16 2 5 3 6 4 28 5 15 6 27 7 4 8 2 9 1 10 3 11 7 12 8 13
REMARK SMILES IDX 9 14 10 15 14 16 11 17 13 18 12 19 29 20 30 21 31 22 32 23
REMARK SMILES IDX 18 24 19 25 20 26 21 27 26 28 22 29 24 30 23 31 25 32
REMARK H PARENT
ROOT
ATOM      1  C   UNL     1       2.054   1.266   0.000  1.00  0.00     0.059 C 
ENDROOT
BRANCH   1   2
ATOM      2  C   UNL     1       0.894   0.314   0.000  1.00  0.00     0.126 C 
ATOM      3  C   UNL     1      -1.424  -1.590   0.000  1.00  0.00     0.250 C 
ATOM      4  C   UNL     1      -1.669  -0.110   0.000  1.00  0.00     0.186 C 
ATOM      5  C   UNL     1      -0.020  -2.118   0.000  1.00  0.00     0.223 C 
ATOM      6  O   UNL     1      -0.510   0.842   0.000  1.00  0.00    -0.366 OA
ATOM      7  C   UNL     1       1.139  -1.165   0.000  1.00  0.00     0.081 C 
BRANCH   3   8
ATOM      8  O   UNL     1      -2.583  -2.542   0.000  1.00  0.00    -0.455 OA
BRANCH   8   9
ATOM      9  C   UNL     1      -3.987  -2.014   0.000  1.00  0.00     0.303 C 
ATOM     10  C   UNL     1      -5.146  -2.966   0.000  1.00  0.00     0.139 C 
ATOM     11  O   UNL     1      -4.232  -0.534   0.000  1.00  0.00    -0.253 OA
ENDBRANCH   8   9
ENDBRANCH   3   8
BRANCH   4  12
ATOM     12  C   UNL     1      -3.073   0.418   0.000  1.00  0.00     0.009 C 
BRANCH  12  13
ATOM     13  C   UNL     1      -3.318   1.898   0.000  1.00  0.00     0.006 C 
BRANCH  13  14
ATOM     14  C   UNL     1      -4.722   2.425   0.000  1.00  0.00    -0.026 A 
ATOM     15  C   UNL     1      -4.967   3.905   0.000  1.00  0.00     0.008 A 
ATOM     16  C   UNL     1      -5.881   1.473   0.000  1.00  0.00     0.008 A 
ATOM     17  C   UNL     1      -6.371   4.433   0.000  1.00  0.00     0.001 A 
ATOM     18  C   UNL     1      -7.285   2.001   0.000  1.00  0.00     0.001 A 
ATOM     19  C   UNL     1      -7.530   3.481   0.000  1.00  0.00     0.000 A 
ENDBRANCH  13  14
ENDBRANCH  12  13
ENDBRANCH   4  12
BRANCH   5  20
ATOM     20  O   UNL     1       0.225  -3.598   0.000  1.00  0.00    -0.458 OA
BRANCH  20  21
ATOM     21  C   UNL     1      -0.934  -4.550   0.000  1.00  0.00     0.303 C 
ATOM     22  C   UNL     1      -0.689  -6.029   0.000  1.00  0.00     0.139 C 
ATOM     23  O   UNL     1      -2.338  -4.022   0.000  1.00  0.00    -0.253 OA
ENDBRANCH  20  21
ENDBRANCH   5  20
ENDBRANCH   1   2
BRANCH   1  24
ATOM     24  C   UNL     1       3.458   0.739   0.000  1.00  0.00    -0.025 C 
BRANCH  24  25
ATOM     25  C   UNL     1       4.617   1.691   0.000  1.00  0.00     0.013 C 
BRANCH  25  26
ATOM     26  C   UNL     1       6.021   1.163   0.000  1.00  0.00     0.203 C 
ATOM     27  C   UNL     1       6.266  -0.317   0.000  1.00  0.00     0.077 C 
ATOM     28  O   UNL     1       7.180   2.115   0.000  1.00  0.00    -0.455 OA
ATOM     29  C   UNL     1       7.670  -0.845   0.000  1.00  0.00    -0.015 C 
ATOM     30  C   UNL     1       8.584   1.587   0.000  1.00  0.00     0.331 C 
ATOM     31  C   UNL     1       8.829   0.107   0.000  1.00  0.00     0.089 C 
ATOM     32  O   UNL     1       9.743   2.539   0.000  1.00  0.00    -0.247 OA
ENDBRANCH  25  26
ENDBRANCH  24  25
ENDBRANCH   1  24
TORSDOF 11
