REMARK SMILES COC(=O)[C@]12CCC(C)(C)C[C@H]1C1=CC[C@@H]3[C@@]4(C)CC[C@H](O)[C@@](C)(CO)[C@@H]4CC[C@@]3(C)[C@]1(C)CC2
REMARK SMILES IDX 5 1 6 2 7 3 8 4 9 5 10 6 11 7 12 8 13 9 14 10 15 11 16 12
REMARK SMILES IDX 17 13 18 14 19 15 20 16 21 17 23 18 24 19 27 20 28 21 29 22
REMARK SMILES IDX 30 23 31 24 32 25 33 26 34 27 35 28 3 29 4 30 2 31 1 32
REMARK SMILES IDX 25 33 26 34 22 36
REMARK H PARENT 26 35 22 37
ROOT
ATOM      1  C   UNL     1       3.557  -0.502   0.000  1.00  0.00     0.075 C 
ATOM      2  C   UNL     1       5.056  -0.519   0.000  1.00  0.00     0.020 C 
ATOM      3  C   UNL     1       5.821   0.771   0.000  1.00  0.00     0.007 C 
ATOM      4  C   UNL     1       5.085   2.079   0.000  1.00  0.00    -0.035 C 
ATOM      5  C   UNL     1       4.841   3.559   0.000  1.00  0.00     0.011 C 
ATOM      6  C   UNL     1       6.501   2.576   0.000  1.00  0.00     0.011 C 
ATOM      7  C   UNL     1       3.586   2.095   0.000  1.00  0.00     0.015 C 
ATOM      8  C   UNL     1       2.821   0.805   0.000  1.00  0.00     0.033 C 
ATOM      9  C   UNL     1       1.321   0.822   0.000  1.00  0.00    -0.063 C 
ATOM     10  C   UNL     1       0.586   2.129   0.000  1.00  0.00    -0.027 C 
ATOM     11  C   UNL     1      -0.914   2.146   0.000  1.00  0.00     0.032 C 
ATOM     12  C   UNL     1      -1.679   0.855   0.000  1.00  0.00     0.006 C 
ATOM     13  C   UNL     1      -3.179   0.872   0.000  1.00  0.00    -0.025 C 
ATOM     14  C   UNL     1      -2.414   2.162   0.000  1.00  0.00     0.012 C 
ATOM     15  C   UNL     1      -3.914   2.179   0.000  1.00  0.00     0.010 C 
ATOM     16  C   UNL     1      -5.414   2.196   0.000  1.00  0.00     0.033 C 
ATOM     17  C   UNL     1      -6.178   0.905   0.000  1.00  0.00     0.123 C 
ATOM     18  C   UNL     1      -5.443  -0.402   0.000  1.00  0.00     0.020 C 
ATOM     19  C   UNL     1      -5.199  -1.882   0.000  1.00  0.00     0.017 C 
ATOM     20  C   UNL     1      -3.943  -0.419   0.000  1.00  0.00     0.006 C 
ATOM     21  C   UNL     1      -3.207  -1.726   0.000  1.00  0.00     0.005 C 
ATOM     22  C   UNL     1      -1.708  -1.743   0.000  1.00  0.00     0.008 C 
ATOM     23  C   UNL     1      -0.943  -0.452   0.000  1.00  0.00    -0.020 C 
ATOM     24  C   UNL     1      -0.208  -1.760   0.000  1.00  0.00     0.012 C 
ATOM     25  C   UNL     1       0.557  -0.469   0.000  1.00  0.00    -0.006 C 
ATOM     26  C   UNL     1       2.057  -0.486   0.000  1.00  0.00     0.017 C 
ATOM     27  C   UNL     1       1.292  -1.776   0.000  1.00  0.00     0.013 C 
ATOM     28  C   UNL     1       2.792  -1.793   0.000  1.00  0.00     0.020 C 
ENDROOT
BRANCH   1  29
ATOM     29  C   UNL     1       4.292  -1.810   0.000  1.00  0.00     0.312 C 
ATOM     30  O   UNL     1       3.528  -3.100   0.000  1.00  0.00    -0.252 OA
BRANCH  29  31
ATOM     31  O   UNL     1       5.792  -1.827   0.000  1.00  0.00    -0.469 OA
ATOM     32  C   UNL     1       6.527  -3.134   0.000  1.00  0.00     0.282 C 
ENDBRANCH  29  31
ENDBRANCH   1  29
BRANCH  18  33
ATOM     33  C   UNL     1      -6.858  -0.899   0.000  1.00  0.00     0.165 C 
BRANCH  33  34
ATOM     34  O   UNL     1      -7.135  -2.374   0.000  1.00  0.00    -0.396 OA
ATOM     35  H   UNL     1       0.000   0.000   0.000  1.00  0.00     0.210 HD
ENDBRANCH  33  34
ENDBRANCH  18  33
BRANCH  17  36
ATOM     36  O   UNL     1      -7.678   0.922   0.000  1.00  0.00    -0.392 OA
ATOM     37  H   UNL     1       0.000   0.000   0.000  1.00  0.00     0.210 HD
ENDBRANCH  17  36
TORSDOF 5
