REMARK SMILES C=C[C@@]1(C)CCC2C(=CC[C@H]3[C@](C)(C(=O)O)CCC[C@]23C)C1
REMARK SMILES IDX 3 1 4 2 5 3 6 4 7 5 8 6 9 7 10 8 11 9 12 10 13 11 17 12
REMARK SMILES IDX 18 13 19 14 20 15 21 16 22 17 2 18 1 19 14 20 15 21 16 22
REMARK H PARENT 16 23
ROOT
ATOM      1  C   UNL     1      -3.655  -0.603   0.000  1.00  0.00    -0.011 C 
ATOM      2  C   UNL     1      -4.436  -1.883   0.000  1.00  0.00     0.016 C 
ATOM      3  C   UNL     1      -3.358   0.867   0.000  1.00  0.00     0.012 C 
ATOM      4  C   UNL     1      -1.937   1.346   0.000  1.00  0.00     0.009 C 
ATOM      5  C   UNL     1      -0.811   0.354   0.000  1.00  0.00     0.021 C 
ATOM      6  C   UNL     1      -1.108  -1.117   0.000  1.00  0.00    -0.070 C 
ATOM      7  C   UNL     1       0.018  -2.108   0.000  1.00  0.00    -0.027 C 
ATOM      8  C   UNL     1       1.439  -1.630   0.000  1.00  0.00     0.032 C 
ATOM      9  C   UNL     1       1.736  -0.159   0.000  1.00  0.00     0.016 C 
ATOM     10  C   UNL     1       3.157   0.319   0.000  1.00  0.00     0.069 C 
ATOM     11  C   UNL     1       4.657   0.282   0.000  1.00  0.00     0.024 C 
ATOM     12  C   UNL     1       3.454   1.790   0.000  1.00  0.00     0.019 C 
ATOM     13  C   UNL     1       2.328   2.781   0.000  1.00  0.00     0.002 C 
ATOM     14  C   UNL     1       0.907   2.303   0.000  1.00  0.00     0.008 C 
ATOM     15  C   UNL     1       0.610   0.833   0.000  1.00  0.00    -0.022 C 
ATOM     16  C   UNL     1      -0.515   1.824   0.000  1.00  0.00     0.012 C 
ATOM     17  C   UNL     1      -2.529  -1.595   0.000  1.00  0.00     0.041 C 
ENDROOT
BRANCH   1  18
ATOM     18  C   UNL     1      -5.051  -0.056   0.000  1.00  0.00    -0.028 C 
ATOM     19  C   UNL     1      -5.276   1.427   0.000  1.00  0.00     0.004 C 
ENDBRANCH   1  18
BRANCH  10  20
ATOM     20  C   UNL     1       3.382  -1.164   0.000  1.00  0.00     0.309 C 
ATOM     21  O   UNL     1       2.209  -2.100   0.000  1.00  0.00    -0.252 OA
BRANCH  20  22
ATOM     22  O   UNL     1       4.778  -1.711   0.000  1.00  0.00    -0.481 OA
ATOM     23  H   UNL     1       0.000   0.000   0.000  1.00  0.00     0.296 HD
ENDBRANCH  20  22
ENDBRANCH  10  20
TORSDOF 3
