REMARK SMILES CC(=O)C[C@@H]1c2cc3c(cc2-c2ccc4cc5c(cc4c2N1C)OCO5)OCO3
REMARK SMILES IDX 4 1 2 2 1 3 3 4 5 5 6 6 22 7 7 8 11 9 21 10 8 11 10 12 12 13
REMARK SMILES IDX 20 14 9 15 29 16 13 17 19 18 15 19 27 20 28 21 14 22 18 23
REMARK SMILES IDX 16 24 24 25 17 26 25 27 26 28 23 29
REMARK H PARENT
ROOT
ATOM      1  C   UNL     1      -1.690   3.017   0.000  1.00  0.00     0.105 C 
ENDROOT
BRANCH   1   2
ATOM      2  C   UNL     1      -0.643   4.091   0.000  1.00  0.00     0.132 C 
ATOM      3  C   UNL     1      -1.051   5.535   0.000  1.00  0.00     0.087 C 
ATOM      4  O   UNL     1       0.811   3.722   0.000  1.00  0.00    -0.300 OA
ENDBRANCH   1   2
BRANCH   1   5
ATOM      5  C   UNL     1      -1.282   1.573   0.000  1.00  0.00     0.120 C 
ATOM      6  C   UNL     1      -2.328   0.498   0.000  1.00  0.00    -0.013 A 
ATOM      7  N   UNL     1       0.172   1.204   0.000  1.00  0.00    -0.366 N 
ATOM      8  C   UNL     1      -3.782   0.867   0.000  1.00  0.00     0.057 A 
ATOM      9  C   UNL     1      -1.921  -0.945   0.000  1.00  0.00    -0.007 A 
ATOM     10  C   UNL     1       0.580  -0.239   0.000  1.00  0.00     0.053 A 
ATOM     11  C   UNL     1      -4.829  -0.208   0.000  1.00  0.00     0.166 A 
ATOM     12  C   UNL     1      -2.967  -2.020   0.000  1.00  0.00     0.059 A 
ATOM     13  C   UNL     1      -0.467  -1.314   0.000  1.00  0.00     0.006 A 
ATOM     14  C   UNL     1       2.034  -0.608   0.000  1.00  0.00     0.010 A 
ATOM     15  C   UNL     1      -4.421  -1.651   0.000  1.00  0.00     0.166 A 
ATOM     16  O   UNL     1      -6.327  -0.149   0.000  1.00  0.00    -0.454 OA
ATOM     17  C   UNL     1      -0.059  -2.758   0.000  1.00  0.00     0.011 A 
ATOM     18  C   UNL     1       3.080   0.467   0.000  1.00  0.00     0.061 A 
ATOM     19  C   UNL     1       2.441  -2.052   0.000  1.00  0.00    -0.012 A 
ATOM     20  O   UNL     1      -5.668  -2.485   0.000  1.00  0.00    -0.454 OA
ATOM     21  C   UNL     1      -6.846  -1.557   0.000  1.00  0.00     0.468 C 
ATOM     22  C   UNL     1       1.395  -3.127   0.000  1.00  0.00     0.009 A 
ATOM     23  C   UNL     1       4.534   0.098   0.000  1.00  0.00     0.166 A 
ATOM     24  C   UNL     1       3.895  -2.421   0.000  1.00  0.00     0.059 A 
ATOM     25  O   UNL     1       5.781   0.931   0.000  1.00  0.00    -0.454 OA
ATOM     26  C   UNL     1       4.941  -1.346   0.000  1.00  0.00     0.166 A 
ATOM     27  C   UNL     1       6.959   0.003   0.000  1.00  0.00     0.468 C 
ATOM     28  O   UNL     1       6.440  -1.404   0.000  1.00  0.00    -0.454 OA
ATOM     29  C   UNL     1       1.218   2.279   0.000  1.00  0.00     0.144 C 
ENDBRANCH   1   5
TORSDOF 2
