REMARK SMILES C=C1C(=O)O[C@H]2C1CCC(=C)[C@@H]1CCC(=C)[C@@H]12
REMARK SMILES IDX 12 1 13 2 14 3 15 4 16 5 17 6 6 7 2 8 3 9 7 10 5 11 1 12
REMARK SMILES IDX 4 13 8 14 10 16 11 17 9 18
REMARK H PARENT
REMARK Flexibility Score:    7.900
ROOT
ATOM      1  C   UNL     1      -2.075  -0.218   0.000  1.00  0.00     0.025 C 
ATOM      2  C   UNL     1      -3.330   0.604   0.000  1.00  0.00     0.013 C 
ATOM      3  C   UNL     1      -2.936   2.051   0.000  1.00  0.00     0.031 C 
ATOM      4  C   UNL     1      -1.438   2.124   0.000  1.00  0.00    -0.070 C 
ATOM      5  C   UNL     1      -0.615   3.378   0.000  1.00  0.00     0.008 C 
ATOM      6  C   UNL     1      -0.906   0.721   0.000  1.00  0.00     0.063 C 
ENDROOT
BRANCH   6   7
ATOM      7  C   UNL     1       0.558   0.392   0.000  1.00  0.00     0.192 C 
ATOM      8  C   UNL     1       2.699  -0.751   0.000  1.00  0.00     0.037 C 
ATOM      9  C   UNL     1       2.962   0.726   0.000  1.00  0.00     0.334 C 
ATOM     10  C   UNL     1       1.213  -0.957   0.000  1.00  0.00     0.068 C 
ATOM     11  O   UNL     1       1.638   1.432   0.000  1.00  0.00    -0.458 OA
ATOM     12  C   UNL     1       3.739  -1.832   0.000  1.00  0.00     0.021 C 
ATOM     13  O   UNL     1       4.311   1.381   0.000  1.00  0.00    -0.247 OA
BRANCH  10  14
ATOM     14  C   UNL     1       0.567  -2.311   0.000  1.00  0.00     0.017 CG0
ATOM     15  G   UNL     1      -0.895  -2.649   0.000  1.00  0.00     0.000 G0
ENDBRANCH  10  14
ENDBRANCH   6   7
BRANCH   1  16
ATOM     16  C   UNL     1      -2.071  -1.718   0.000  1.00  0.00    -0.074 C 
ATOM     17  C   UNL     1      -3.420  -2.373   0.000  1.00  0.00     0.008 C 
BRANCH  16  18
ATOM     18  C   UNL     1      -0.895  -2.649   0.000  1.00  0.00     0.031 CG0
ATOM     19  G   UNL     1       0.567  -2.311   0.000  1.00  0.00     0.000 G0
ENDBRANCH  16  18
ENDBRANCH   1  16
TORSDOF 0
