REMARK SMILES C=CC[C@@]12C=C(OC)C(=O)C=C1O[C@H](c1ccc(OC)c(OC)c1)[C@H]2C
REMARK SMILES IDX 4 1 5 2 6 3 9 4 10 5 11 6 12 7 13 8 14 9 25 10 26 11 3 12
REMARK SMILES IDX 2 13 1 14 7 15 8 16 15 17 16 18 24 19 17 20 21 21 18 22
REMARK SMILES IDX 22 23 23 24 19 25 20 26
REMARK H PARENT
ROOT
ATOM      1  C   UNL     1       1.832   0.180   0.000  1.00  0.00     0.060 C 
ATOM      2  C   UNL     1       3.181  -0.477   0.000  1.00  0.00     0.039 C 
ATOM      3  C   UNL     1       4.424   0.362   0.000  1.00  0.00     0.163 C 
ATOM      4  C   UNL     1       4.319   1.858   0.000  1.00  0.00     0.223 C 
ATOM      5  O   UNL     1       5.562   2.698   0.000  1.00  0.00    -0.286 OA
ATOM      6  C   UNL     1       2.970   2.515   0.000  1.00  0.00     0.098 C 
ATOM      7  C   UNL     1       1.727   1.676   0.000  1.00  0.00     0.112 C 
ATOM      8  O   UNL     1       0.271   2.038   0.000  1.00  0.00    -0.489 OA
ATOM      9  C   UNL     1      -0.523   0.766   0.000  1.00  0.00     0.207 C 
ATOM     10  C   UNL     1       0.442  -0.383   0.000  1.00  0.00     0.049 C 
ATOM     11  C   UNL     1       0.080  -1.838   0.000  1.00  0.00     0.013 C 
ENDROOT
BRANCH   1  12
ATOM     12  C   UNL     1       1.781  -1.319   0.000  1.00  0.00     0.046 C 
BRANCH  12  13
ATOM     13  C   UNL     1       3.053  -2.114   0.000  1.00  0.00    -0.033 C 
ATOM     14  C   UNL     1       3.001  -3.613   0.000  1.00  0.00     0.004 C 
ENDBRANCH  12  13
ENDBRANCH   1  12
BRANCH   3  15
ATOM     15  O   UNL     1       5.772  -0.295   0.000  1.00  0.00    -0.493 OA
ATOM     16  C   UNL     1       5.878  -1.791   0.000  1.00  0.00     0.278 C 
ENDBRANCH   3  15
BRANCH   9  17
ATOM     17  C   UNL     1      -2.019   0.660   0.000  1.00  0.00    -0.003 A 
ATOM     18  C   UNL     1      -2.859   1.904   0.000  1.00  0.00     0.011 A 
ATOM     19  C   UNL     1      -2.676  -0.688   0.000  1.00  0.00     0.058 A 
ATOM     20  C   UNL     1      -4.355   1.798   0.000  1.00  0.00     0.051 A 
ATOM     21  C   UNL     1      -4.173  -0.793   0.000  1.00  0.00     0.161 A 
ATOM     22  C   UNL     1      -5.012   0.450   0.000  1.00  0.00     0.160 A 
BRANCH  21  23
ATOM     23  O   UNL     1      -4.830  -2.142   0.000  1.00  0.00    -0.493 OA
ATOM     24  C   UNL     1      -3.990  -3.385   0.000  1.00  0.00     0.278 C 
ENDBRANCH  21  23
BRANCH  22  25
ATOM     25  O   UNL     1      -6.508   0.345   0.000  1.00  0.00    -0.493 OA
ATOM     26  C   UNL     1      -7.348   1.588   0.000  1.00  0.00     0.278 C 
ENDBRANCH  22  25
ENDBRANCH   9  17
TORSDOF 6
