REMARK SMILES O=C(O)c1cc(O)c(O)c(O)c1
REMARK SMILES IDX 4 1 5 2 6 3 8 4 10 5 12 6 2 7 1 8 3 9 7 11 11 13 9 15
REMARK H PARENT 3 10 7 12 11 14 9 16
ROOT
ATOM      1  C   UNL     1       1.125  -0.000   0.000  1.00  0.00     0.067 A 
ATOM      2  C   UNL     1       0.375  -1.299   0.000  1.00  0.00     0.066 A 
ATOM      3  C   UNL     1      -1.125  -1.299   0.000  1.00  0.00     0.162 A 
ATOM      4  C   UNL     1      -1.875   0.000   0.000  1.00  0.00     0.200 A 
ATOM      5  C   UNL     1      -1.125   1.299   0.000  1.00  0.00     0.162 A 
ATOM      6  C   UNL     1       0.375   1.299   0.000  1.00  0.00     0.066 A 
ENDROOT
BRANCH   1   7
ATOM      7  C   UNL     1       2.625   0.000   0.000  1.00  0.00     0.335 C 
ATOM      8  O   UNL     1       3.375   1.299   0.000  1.00  0.00    -0.246 OA
BRANCH   7   9
ATOM      9  O   UNL     1       3.375  -1.299   0.000  1.00  0.00    -0.478 OA
ATOM     10  H   UNL     1       0.000   0.000   0.000  1.00  0.00     0.297 HD
ENDBRANCH   7   9
ENDBRANCH   1   7
BRANCH   3  11
ATOM     11  O   UNL     1      -1.875  -2.598   0.000  1.00  0.00    -0.504 OA
ATOM     12  H   UNL     1       0.000   0.000   0.000  1.00  0.00     0.293 HD
ENDBRANCH   3  11
BRANCH   5  13
ATOM     13  O   UNL     1      -1.875   2.598   0.000  1.00  0.00    -0.504 OA
ATOM     14  H   UNL     1       0.000   0.000   0.000  1.00  0.00     0.293 HD
ENDBRANCH   5  13
BRANCH   4  15
ATOM     15  O   UNL     1      -3.375   0.000   0.000  1.00  0.00    -0.502 OA
ATOM     16  H   UNL     1       0.000   0.000   0.000  1.00  0.00     0.293 HD
ENDBRANCH   4  15
TORSDOF 5
