REMARK SMILES CC(C)[C@@H](C)[C@@]1(C)C[C@@H]1[C@@H](C)[C@H]1CC[C@H]2[C@@H]3CC=C4C[C@@H](O)CC[C@]4(C)[C@H]3CC[C@]12C
REMARK SMILES IDX 6 1 7 2 8 3 9 4 4 5 5 6 2 7 1 8 3 9 10 10 11 11 12 12 13 13
REMARK SMILES IDX 30 14 14 15 29 16 15 17 28 18 16 19 27 20 17 21 25 22 18 23
REMARK SMILES IDX 24 24 19 25 23 26 20 27 21 28 31 29 26 30 22 31
REMARK H PARENT 22 32
ROOT
ATOM      1  C   UNL     1      -4.117   1.299   0.000  1.00  0.00    -0.026 C 
ATOM      2  C   UNL     1      -4.602   2.719   0.000  1.00  0.00     0.012 C 
ATOM      3  C   UNL     1      -2.635   1.531   0.000  1.00  0.00     0.011 C 
ATOM      4  C   UNL     1      -3.175   0.132   0.000  1.00  0.00    -0.001 C 
ENDROOT
BRANCH   1   5
ATOM      5  C   UNL     1      -5.430   0.575   0.000  1.00  0.00    -0.005 C 
ATOM      6  C   UNL     1      -5.459  -0.925   0.000  1.00  0.00     0.008 C 
BRANCH   5   7
ATOM      7  C   UNL     1      -6.714   1.350   0.000  1.00  0.00    -0.014 C 
ATOM      8  C   UNL     1      -6.685   2.849   0.000  1.00  0.00     0.007 C 
ATOM      9  C   UNL     1      -8.028   0.625   0.000  1.00  0.00     0.007 C 
ENDBRANCH   5   7
ENDBRANCH   1   5
BRANCH   4  10
ATOM     10  C   UNL     1      -2.943  -1.350   0.000  1.00  0.00    -0.007 C 
ATOM     11  C   UNL     1      -4.111  -2.292   0.000  1.00  0.00     0.008 C 
BRANCH  10  12
ATOM     12  C   UNL     1      -1.544  -1.891   0.000  1.00  0.00    -0.002 C 
ATOM     13  C   UNL     1      -1.159  -3.340   0.000  1.00  0.00     0.005 C 
ATOM     14  C   UNL     1      -0.284  -1.076   0.000  1.00  0.00    -0.026 C 
ATOM     15  C   UNL     1       0.339  -3.422   0.000  1.00  0.00     0.005 C 
ATOM     16  C   UNL     1      -0.047   0.405   0.000  1.00  0.00     0.007 C 
ATOM     17  C   UNL     1       0.879  -2.023   0.000  1.00  0.00    -0.001 C 
ATOM     18  C   UNL     1       1.355   0.939   0.000  1.00  0.00     0.005 C 
ATOM     19  C   UNL     1       2.281  -1.488   0.000  1.00  0.00     0.000 C 
ATOM     20  C   UNL     1       2.518  -0.007   0.000  1.00  0.00     0.003 C 
ATOM     21  C   UNL     1       3.445  -2.434   0.000  1.00  0.00     0.031 C 
ATOM     22  C   UNL     1       3.920   0.528   0.000  1.00  0.00    -0.008 C 
ATOM     23  C   UNL     1       4.846  -1.900   0.000  1.00  0.00    -0.027 C 
ATOM     24  C   UNL     1       4.158   2.009   0.000  1.00  0.00     0.014 C 
ATOM     25  C   UNL     1       5.084  -0.418   0.000  1.00  0.00    -0.065 C 
ATOM     26  C   UNL     1       5.559   2.544   0.000  1.00  0.00     0.033 C 
ATOM     27  C   UNL     1       6.485   0.116   0.000  1.00  0.00     0.063 C 
ATOM     28  C   UNL     1       6.723   1.597   0.000  1.00  0.00     0.118 C 
ATOM     29  C   UNL     1      -1.541  -0.257   0.000  1.00  0.00     0.012 C 
ATOM     30  C   UNL     1       2.756   1.474   0.000  1.00  0.00     0.016 C 
BRANCH  28  31
ATOM     31  O   UNL     1       8.124   2.132   0.000  1.00  0.00    -0.393 OA
ATOM     32  H   UNL     1       0.000   0.000   0.000  1.00  0.00     0.210 HD
ENDBRANCH  28  31
ENDBRANCH  10  12
ENDBRANCH   4  10
TORSDOF 5
