REMARK SMILES C[C@H]1OC(=O)[C@H](CCCCCCCCCCCCCCCCCc2ccccc2)[C@H]1O
REMARK SMILES IDX 14 1 13 2 12 3 11 4 10 5 9 6 8 7 7 8 6 9 2 10 3 11 30 12
REMARK SMILES IDX 4 13 1 14 5 15 31 16 15 18 16 19 17 20 18 21 19 22 20 23
REMARK SMILES IDX 21 24 22 25 23 26 24 27 25 28 29 29 26 30 28 31 27 32
REMARK H PARENT 31 17
ROOT
ATOM      1  C   UNL     1      -0.521  -0.150   0.000  1.00  0.00     0.000 C 
ENDROOT
BRANCH   1   2
ATOM      2  C   UNL     1      -1.815  -0.910   0.000  1.00  0.00     0.000 C 
BRANCH   2   3
ATOM      3  C   UNL     1      -3.119  -0.169   0.000  1.00  0.00     0.000 C 
BRANCH   3   4
ATOM      4  C   UNL     1      -4.413  -0.929   0.000  1.00  0.00     0.000 C 
BRANCH   4   5
ATOM      5  C   UNL     1      -5.717  -0.189   0.000  1.00  0.00     0.000 C 
BRANCH   5   6
ATOM      6  C   UNL     1      -7.011  -0.949   0.000  1.00  0.00     0.000 C 
BRANCH   6   7
ATOM      7  C   UNL     1      -8.315  -0.208   0.000  1.00  0.00     0.001 C 
BRANCH   7   8
ATOM      8  C   UNL     1      -9.609  -0.968   0.000  1.00  0.00     0.018 C 
BRANCH   8   9
ATOM      9  C   UNL     1     -10.913  -0.228   0.000  1.00  0.00     0.131 C 
ATOM     10  C   UNL     1     -12.551   1.564   0.000  1.00  0.00     0.203 C 
ATOM     11  O   UNL     1     -13.291   0.259   0.000  1.00  0.00    -0.460 OA
ATOM     12  C   UNL     1     -11.081   1.263   0.000  1.00  0.00     0.169 C 
ATOM     13  C   UNL     1     -12.279  -0.848   0.000  1.00  0.00     0.312 C 
ATOM     14  C   UNL     1     -13.171   2.930   0.000  1.00  0.00     0.056 C 
ATOM     15  O   UNL     1     -12.580  -2.317   0.000  1.00  0.00    -0.252 OA
BRANCH  12  16
ATOM     16  O   UNL     1      -9.974   2.275   0.000  1.00  0.00    -0.388 OA
ATOM     17  H   UNL     1       0.000   0.000   0.000  1.00  0.00     0.211 HD
ENDBRANCH  12  16
ENDBRANCH   8   9
ENDBRANCH   7   8
ENDBRANCH   6   7
ENDBRANCH   5   6
ENDBRANCH   4   5
ENDBRANCH   3   4
ENDBRANCH   2   3
ENDBRANCH   1   2
BRANCH   1  18
ATOM     18  C   UNL     1       0.783  -0.890   0.000  1.00  0.00     0.000 C 
BRANCH  18  19
ATOM     19  C   UNL     1       2.077  -0.131   0.000  1.00  0.00     0.000 C 
BRANCH  19  20
ATOM     20  C   UNL     1       3.381  -0.871   0.000  1.00  0.00     0.000 C 
BRANCH  20  21
ATOM     21  C   UNL     1       4.675  -0.111   0.000  1.00  0.00     0.000 C 
BRANCH  21  22
ATOM     22  C   UNL     1       5.979  -0.852   0.000  1.00  0.00     0.000 C 
BRANCH  22  23
ATOM     23  C   UNL     1       7.273  -0.092   0.000  1.00  0.00     0.000 C 
BRANCH  23  24
ATOM     24  C   UNL     1       8.577  -0.832   0.000  1.00  0.00     0.000 C 
BRANCH  24  25
ATOM     25  C   UNL     1       9.871  -0.073   0.000  1.00  0.00     0.005 C 
BRANCH  25  26
ATOM     26  C   UNL     1      11.175  -0.813   0.000  1.00  0.00     0.035 C 
BRANCH  26  27
ATOM     27  C   UNL     1      12.469  -0.053   0.000  1.00  0.00    -0.048 A 
ATOM     28  C   UNL     1      13.773  -0.794   0.000  1.00  0.00     0.004 A 
ATOM     29  C   UNL     1      12.457   1.447   0.000  1.00  0.00     0.004 A 
ATOM     30  C   UNL     1      15.067  -0.034   0.000  1.00  0.00     0.000 A 
ATOM     31  C   UNL     1      13.751   2.206   0.000  1.00  0.00     0.000 A 
ATOM     32  C   UNL     1      15.055   1.466   0.000  1.00  0.00     0.000 A 
ENDBRANCH  26  27
ENDBRANCH  25  26
ENDBRANCH  24  25
ENDBRANCH  23  24
ENDBRANCH  22  23
ENDBRANCH  21  22
ENDBRANCH  20  21
ENDBRANCH  19  20
ENDBRANCH  18  19
ENDBRANCH   1  18
TORSDOF 19
