REMARK SMILES COc1cc(=O)n(C)c2ccccc12
REMARK SMILES IDX 3 1 4 2 5 3 6 4 7 5 8 6 9 7 10 8 11 9 12 10 13 11 14 12 2 13
REMARK SMILES IDX 1 14
REMARK H PARENT
ROOT
ATOM      1  C   UNL     1      -1.027   1.077   0.000  1.00  0.00     0.133 A 
ATOM      2  C   UNL     1      -2.035  -0.033   0.000  1.00  0.00     0.118 A 
ATOM      3  C   UNL     1      -1.578  -1.461   0.000  1.00  0.00     0.254 A 
ATOM      4  O   UNL     1      -2.587  -2.572   0.000  1.00  0.00    -0.269 OA
ATOM      5  N   UNL     1      -0.112  -1.780   0.000  1.00  0.00    -0.311 N 
ATOM      6  C   UNL     1       0.345  -3.208   0.000  1.00  0.00     0.153 C 
ATOM      7  C   UNL     1       0.896  -0.669   0.000  1.00  0.00     0.055 A 
ATOM      8  C   UNL     1       2.362  -0.988   0.000  1.00  0.00     0.027 A 
ATOM      9  C   UNL     1       3.371   0.123   0.000  1.00  0.00     0.002 A 
ATOM     10  C   UNL     1       2.913   1.551   0.000  1.00  0.00     0.001 A 
ATOM     11  C   UNL     1       1.448   1.869   0.000  1.00  0.00     0.014 A 
ATOM     12  C   UNL     1       0.439   0.759   0.000  1.00  0.00     0.041 A 
ENDROOT
BRANCH   1  13
ATOM     13  O   UNL     1      -1.484   2.506   0.000  1.00  0.00    -0.496 OA
ATOM     14  C   UNL     1      -2.950   2.825   0.000  1.00  0.00     0.278 C 
ENDBRANCH   1  13
TORSDOF 1
