REMARK SMILES CC(=O)N1C=C([C@@H]2[C@@H]3C[C@H](CN4CCCCC34)C3CCCCN32)CCC1
REMARK SMILES IDX 4 1 5 2 6 3 24 4 25 5 26 6 2 7 1 8 3 9 7 10 8 11 23 12 9 13
REMARK SMILES IDX 17 14 22 15 18 16 10 17 16 18 12 19 21 20 19 21 11 22 15 23
REMARK SMILES IDX 13 24 20 25 14 26
REMARK H PARENT
ROOT
ATOM      1  N   UNL     1       3.786   1.298   0.000  1.00  0.00    -0.319 N 
ATOM      2  C   UNL     1       2.627   0.346   0.000  1.00  0.00     0.089 C 
ATOM      3  C   UNL     1       1.223   0.874   0.000  1.00  0.00    -0.036 C 
ATOM      4  C   UNL     1       0.978   2.354   0.000  1.00  0.00     0.036 C 
ATOM      5  C   UNL     1       2.138   3.306   0.000  1.00  0.00     0.026 C 
ATOM      6  C   UNL     1       3.542   2.778   0.000  1.00  0.00     0.125 C 
ENDROOT
BRANCH   1   7
ATOM      7  C   UNL     1       5.190   0.769   0.000  1.00  0.00     0.223 C 
ATOM      8  C   UNL     1       5.434  -0.710   0.000  1.00  0.00     0.115 C 
ATOM      9  O   UNL     1       6.349   1.721   0.000  1.00  0.00    -0.275 OA
ENDBRANCH   1   7
BRANCH   3  10
ATOM     10  C   UNL     1       0.063  -0.077   0.000  1.00  0.00     0.089 C 
ATOM     11  C   UNL     1      -1.341   0.451   0.000  1.00  0.00     0.028 C 
ATOM     12  N   UNL     1       0.308  -1.557   0.000  1.00  0.00    -0.293 NA
ATOM     13  C   UNL     1      -2.500  -0.501   0.000  1.00  0.00     0.013 C 
ATOM     14  C   UNL     1      -2.744   0.979   0.000  1.00  0.00     0.061 C 
ATOM     15  C   UNL     1       1.712  -2.086   0.000  1.00  0.00     0.085 C 
ATOM     16  C   UNL     1      -0.852  -2.509   0.000  1.00  0.00     0.061 C 
ATOM     17  C   UNL     1      -2.256  -1.981   0.000  1.00  0.00     0.021 C 
ATOM     18  C   UNL     1      -2.989   2.459   0.000  1.00  0.00     0.019 C 
ATOM     19  N   UNL     1      -3.904   0.028   0.000  1.00  0.00    -0.300 NA
ATOM     20  C   UNL     1       1.956  -3.565   0.000  1.00  0.00     0.016 C 
ATOM     21  C   UNL     1      -0.607  -3.989   0.000  1.00  0.00     0.019 C 
ATOM     22  C   UNL     1      -3.659  -1.452   0.000  1.00  0.00     0.090 C 
ATOM     23  C   UNL     1      -4.393   2.987   0.000  1.00  0.00     0.003 C 
ATOM     24  C   UNL     1      -5.308   0.556   0.000  1.00  0.00     0.085 C 
ATOM     25  C   UNL     1       0.797  -4.517   0.000  1.00  0.00     0.003 C 
ATOM     26  C   UNL     1      -5.552   2.036   0.000  1.00  0.00     0.016 C 
ENDBRANCH   3  10
TORSDOF 2
