REMARK SMILES COc1ccc(-c2oc3c(OC)c(OC)cc(OC)c3c(=O)c2OC)cc1OC
REMARK SMILES IDX 7 1 23 2 21 3 22 4 20 5 17 6 16 7 13 8 10 9 9 10 8 11 6 12
REMARK SMILES IDX 3 13 4 14 27 15 5 16 26 17 2 18 1 19 28 20 29 21 24 22 25 23
REMARK SMILES IDX 11 24 12 25 18 26 19 27 14 28 15 29
REMARK H PARENT
ROOT
ATOM      1  C   UNL     1      -0.605  -0.164   0.000  1.00  0.00     0.181 A 
ATOM      2  C   UNL     1      -0.212  -1.612   0.000  1.00  0.00     0.210 A 
ATOM      3  C   UNL     1       1.238  -1.996   0.000  1.00  0.00     0.239 A 
ATOM      4  O   UNL     1       1.630  -3.443   0.000  1.00  0.00    -0.285 OA
ATOM      5  C   UNL     1       2.295  -0.932   0.000  1.00  0.00     0.115 A 
ATOM      6  C   UNL     1       3.745  -1.315   0.000  1.00  0.00     0.137 A 
ATOM      7  C   UNL     1       4.802  -0.251   0.000  1.00  0.00     0.097 A 
ATOM      8  C   UNL     1       4.410   1.196   0.000  1.00  0.00     0.168 A 
ATOM      9  C   UNL     1       2.959   1.580   0.000  1.00  0.00     0.205 A 
ATOM     10  C   UNL     1       1.902   0.516   0.000  1.00  0.00     0.188 A 
ATOM     11  O   UNL     1       0.452   0.900   0.000  1.00  0.00    -0.448 OA
ENDROOT
BRANCH   1  12
ATOM     12  C   UNL     1      -2.055   0.220   0.000  1.00  0.00     0.025 A 
ATOM     13  C   UNL     1      -4.955   0.987   0.000  1.00  0.00     0.160 A 
ATOM     14  C   UNL     1      -3.898   2.051   0.000  1.00  0.00     0.051 A 
ATOM     15  C   UNL     1      -4.563  -0.461   0.000  1.00  0.00     0.161 A 
ATOM     16  C   UNL     1      -2.448   1.667   0.000  1.00  0.00     0.016 A 
ATOM     17  C   UNL     1      -3.113  -0.845   0.000  1.00  0.00     0.062 A 
BRANCH  13  18
ATOM     18  O   UNL     1      -6.406   1.371   0.000  1.00  0.00    -0.493 OA
ATOM     19  C   UNL     1      -6.798   2.818   0.000  1.00  0.00     0.278 C 
ENDBRANCH  13  18
BRANCH  15  20
ATOM     20  O   UNL     1      -5.620  -1.525   0.000  1.00  0.00    -0.493 OA
ATOM     21  C   UNL     1      -7.070  -1.141   0.000  1.00  0.00     0.278 C 
ENDBRANCH  15  20
ENDBRANCH   1  12
BRANCH   2  22
ATOM     22  O   UNL     1      -1.270  -2.676   0.000  1.00  0.00    -0.490 OA
ATOM     23  C   UNL     1      -2.720  -2.292   0.000  1.00  0.00     0.278 C 
ENDBRANCH   2  22
BRANCH   9  24
ATOM     24  O   UNL     1       2.567   3.028   0.000  1.00  0.00    -0.490 OA
ATOM     25  C   UNL     1       3.624   4.092   0.000  1.00  0.00     0.278 C 
ENDBRANCH   9  24
BRANCH   6  26
ATOM     26  O   UNL     1       4.138  -2.763   0.000  1.00  0.00    -0.496 OA
ATOM     27  C   UNL     1       5.588  -3.147   0.000  1.00  0.00     0.278 C 
ENDBRANCH   6  26
BRANCH   8  28
ATOM     28  O   UNL     1       5.467   2.260   0.000  1.00  0.00    -0.493 OA
ATOM     29  C   UNL     1       6.917   1.877   0.000  1.00  0.00     0.278 C 
ENDBRANCH   8  28
TORSDOF 7
