REMARK SMILES C=C1OC2=CC(=O)C(C)(C)[C@@H](CC(=O)OC)[C@]2(C)[C@]12CC[C@]1(C)C2=CC(=O)O[C@H]1c1ccoc1
REMARK SMILES IDX 12 1 11 2 2 3 3 4 19 5 4 6 17 7 20 8 24 9 5 10 21 11 22 12
REMARK SMILES IDX 25 13 6 14 8 15 29 16 26 17 28 18 1 19 18 20 23 21 7 22 9 23
REMARK SMILES IDX 10 24 27 25 30 26 34 27 31 28 33 29 32 30 13 31 14 32 15 33
REMARK SMILES IDX 16 34
REMARK H PARENT
ROOT
ATOM      1  C   UNL     1       0.359   1.079   0.000  1.00  0.00     0.128 C 
ENDROOT
BRANCH   1   2
ATOM      2  C   UNL     1       1.671   0.352   0.000  1.00  0.00     0.028 C 
ATOM      3  C   UNL     1       1.238  -3.530   0.000  1.00  0.00     0.108 C 
ATOM      4  O   UNL     1       2.727  -3.346   0.000  1.00  0.00    -0.465 OA
ATOM      5  C   UNL     1       0.603  -2.171   0.000  1.00  0.00     0.063 C 
ATOM      6  C   UNL     1       3.012  -1.873   0.000  1.00  0.00     0.115 C 
ATOM      7  C   UNL     1       1.699  -1.147   0.000  1.00  0.00     0.046 C 
ATOM      8  C   UNL     1      -0.493  -3.195   0.000  1.00  0.00     0.021 C 
ATOM      9  C   UNL     1      -0.032  -0.812   0.000  1.00  0.00    -0.038 C 
ATOM     10  C   UNL     1       4.297  -1.100   0.000  1.00  0.00     0.090 C 
ATOM     11  C   UNL     1      -1.806  -2.469   0.000  1.00  0.00     0.017 C 
ATOM     12  C   UNL     1      -1.521  -0.997   0.000  1.00  0.00     0.032 C 
ATOM     13  C   UNL     1       0.553   0.569   0.000  1.00  0.00     0.094 C 
ATOM     14  C   UNL     1       4.269   0.400   0.000  1.00  0.00     0.164 C 
ATOM     15  C   UNL     1       2.957   1.126   0.000  1.00  0.00     0.032 C 
ATOM     16  C   UNL     1      -2.425   0.201   0.000  1.00  0.00     0.220 C 
ATOM     17  C   UNL     1      -0.351   1.766   0.000  1.00  0.00     0.331 C 
ATOM     18  O   UNL     1      -1.840   1.582   0.000  1.00  0.00    -0.453 OA
ATOM     19  C   UNL     1       0.512  -4.843   0.000  1.00  0.00     0.055 C 
ATOM     20  C   UNL     1       2.189  -2.565   0.000  1.00  0.00     0.021 C 
ATOM     21  C   UNL     1      -2.982  -1.335   0.000  1.00  0.00     0.020 C 
ATOM     22  O   UNL     1       5.554   1.174   0.000  1.00  0.00    -0.294 OA
ATOM     23  C   UNL     1       1.971   2.257   0.000  1.00  0.00     0.020 C 
ATOM     24  C   UNL     1       3.899   2.293   0.000  1.00  0.00     0.020 C 
ATOM     25  O   UNL     1      -0.118   3.248   0.000  1.00  0.00    -0.247 OA
BRANCH  16  26
ATOM     26  C   UNL     1      -3.913   0.017   0.000  1.00  0.00     0.032 A 
ATOM     27  C   UNL     1      -4.639  -1.296   0.000  1.00  0.00     0.202 A 
ATOM     28  C   UNL     1      -4.937   1.113   0.000  1.00  0.00     0.049 A 
ATOM     29  O   UNL     1      -6.112  -1.011   0.000  1.00  0.00    -0.472 OA
ATOM     30  C   UNL     1      -6.296   0.477   0.000  1.00  0.00     0.195 A 
ENDBRANCH  16  26
ENDBRANCH   1   2
BRANCH   1  31
ATOM     31  C   UNL     1       0.331   2.578   0.000  1.00  0.00     0.305 C 
ATOM     32  O   UNL     1       1.616   3.352   0.000  1.00  0.00    -0.252 OA
BRANCH  31  33
ATOM     33  O   UNL     1      -0.981   3.304   0.000  1.00  0.00    -0.469 OA
ATOM     34  C   UNL     1      -1.009   4.804   0.000  1.00  0.00     0.282 C 
ENDBRANCH  31  33
ENDBRANCH   1  31
TORSDOF 4
