REMARK SMILES C[C@@H]1CC[C@]2(C(=O)O[C@@H]3O[C@H](CO)[C@@H](O)[C@H](O)[C@H]3O)CC[C@]3(C)C(=CC[C@@H]4[C@@]5(C)C[C@@H](O)[C@H](O)C(CO)(CO)[C@@H]5CC[C@]43C)[C@@H]2[C@]1(C)O
REMARK SMILES IDX 6 1 7 2 5 3 2 4 3 5 46 6 4 7 45 8 24 9 20 10 22 11 25 12
REMARK SMILES IDX 21 13 43 14 26 15 42 16 27 17 41 18 28 19 40 20 30 21 35 22
REMARK SMILES IDX 31 23 33 24 1 25 47 26 23 27 44 28 29 29 48 30 36 32 37 33
REMARK SMILES IDX 38 35 39 36 32 38 34 40 8 42 9 43 10 44 18 45 11 46 16 47
REMARK SMILES IDX 14 48 19 49 12 51 13 52 17 54 15 56
REMARK H PARENT 48 31 37 34 39 37 32 39 34 41 19 50 13 53 17 55 15 57
ROOT
ATOM      1  C   UNL     1      -3.393  -1.017   0.000  1.00  0.00     0.315 C 
ATOM      2  O   UNL     1      -4.748  -1.662   0.000  1.00  0.00    -0.252 OA
ENDROOT
BRANCH   1   3
ATOM      3  C   UNL     1      -2.158  -1.868   0.000  1.00  0.00     0.077 C 
ATOM      4  C   UNL     1      -2.396  -4.859   0.000  1.00  0.00     0.018 C 
ATOM      5  C   UNL     1      -3.631  -4.008   0.000  1.00  0.00     0.007 C 
ATOM      6  C   UNL     1      -1.041  -4.214   0.000  1.00  0.00     0.072 C 
ATOM      7  C   UNL     1      -3.512  -2.513   0.000  1.00  0.00     0.020 C 
ATOM      8  C   UNL     1      -0.922  -2.719   0.000  1.00  0.00     0.064 C 
ATOM      9  C   UNL     1       0.432  -2.074   0.000  1.00  0.00    -0.061 C 
ATOM     10  C   UNL     1      -2.039  -0.373   0.000  1.00  0.00     0.020 C 
ATOM     11  C   UNL     1       0.551  -0.579   0.000  1.00  0.00    -0.006 C 
ATOM     12  C   UNL     1       1.668  -2.925   0.000  1.00  0.00    -0.026 C 
ATOM     13  C   UNL     1      -0.684   0.272   0.000  1.00  0.00     0.013 C 
ATOM     14  C   UNL     1       1.906   0.066   0.000  1.00  0.00    -0.020 C 
ATOM     15  C   UNL     1       3.022  -2.280   0.000  1.00  0.00     0.032 C 
ATOM     16  C   UNL     1       2.025   1.561   0.000  1.00  0.00     0.008 C 
ATOM     17  C   UNL     1       3.141  -0.785   0.000  1.00  0.00     0.006 C 
ATOM     18  C   UNL     1       3.379   2.206   0.000  1.00  0.00     0.005 C 
ATOM     19  C   UNL     1       4.495  -0.140   0.000  1.00  0.00    -0.023 C 
ATOM     20  C   UNL     1       4.615   1.355   0.000  1.00  0.00     0.009 C 
ATOM     21  C   UNL     1       5.731  -0.991   0.000  1.00  0.00     0.042 C 
ATOM     22  C   UNL     1       5.969   1.999   0.000  1.00  0.00     0.048 C 
ATOM     23  C   UNL     1       7.085  -0.346   0.000  1.00  0.00     0.144 C 
ATOM     24  C   UNL     1       7.204   1.149   0.000  1.00  0.00     0.154 C 
ATOM     25  C   UNL     1      -2.515  -6.354   0.000  1.00  0.00     0.011 C 
ATOM     26  C   UNL     1       0.452  -4.072   0.000  1.00  0.00     0.043 C 
ATOM     27  C   UNL     1       1.787  -1.429   0.000  1.00  0.00     0.017 C 
ATOM     28  C   UNL     1       0.670   0.916   0.000  1.00  0.00     0.012 C 
ATOM     29  C   UNL     1       4.377  -1.636   0.000  1.00  0.00     0.012 C 
BRANCH   6  30
ATOM     30  O   UNL     1      -0.642  -5.660   0.000  1.00  0.00    -0.389 OA
ATOM     31  H   UNL     1       0.000   0.000   0.000  1.00  0.00     0.211 HD
ENDBRANCH   6  30
BRANCH  22  32
ATOM     32  C   UNL     1       5.099   3.221   0.000  1.00  0.00     0.168 C 
BRANCH  32  33
ATOM     33  O   UNL     1       3.606   3.079   0.000  1.00  0.00    -0.396 OA
ATOM     34  H   UNL     1       0.000   0.000   0.000  1.00  0.00     0.210 HD
ENDBRANCH  32  33
ENDBRANCH  22  32
BRANCH  22  35
ATOM     35  C   UNL     1       7.021   3.068   0.000  1.00  0.00     0.168 C 
BRANCH  35  36
ATOM     36  O   UNL     1       6.622   4.514   0.000  1.00  0.00    -0.396 OA
ATOM     37  H   UNL     1       0.000   0.000   0.000  1.00  0.00     0.210 HD
ENDBRANCH  35  36
ENDBRANCH  22  35
BRANCH  23  38
ATOM     38  O   UNL     1       8.321  -1.197   0.000  1.00  0.00    -0.390 OA
ATOM     39  H   UNL     1       0.000   0.000   0.000  1.00  0.00     0.211 HD
ENDBRANCH  23  38
BRANCH  24  40
ATOM     40  O   UNL     1       8.559   1.793   0.000  1.00  0.00    -0.390 OA
ATOM     41  H   UNL     1       0.000   0.000   0.000  1.00  0.00     0.211 HD
ENDBRANCH  24  40
ENDBRANCH   1   3
BRANCH   1  42
ATOM     42  O   UNL     1      -3.274   0.478   0.000  1.00  0.00    -0.432 OA
BRANCH  42  43
ATOM     43  C   UNL     1      -4.510   1.329   0.000  1.00  0.00     0.342 C 
ATOM     44  O   UNL     1      -4.391   2.824   0.000  1.00  0.00    -0.332 OA
ATOM     45  C   UNL     1      -5.864   0.684   0.000  1.00  0.00     0.214 C 
ATOM     46  C   UNL     1      -5.626   3.675   0.000  1.00  0.00     0.179 C 
ATOM     47  C   UNL     1      -7.099   1.535   0.000  1.00  0.00     0.180 C 
ATOM     48  C   UNL     1      -6.980   3.030   0.000  1.00  0.00     0.177 C 
BRANCH  45  49
ATOM     49  O   UNL     1      -5.983  -0.811   0.000  1.00  0.00    -0.384 OA
ATOM     50  H   UNL     1       0.000   0.000   0.000  1.00  0.00     0.211 HD
ENDBRANCH  45  49
BRANCH  46  51
ATOM     51  C   UNL     1      -5.507   5.170   0.000  1.00  0.00     0.191 C 
BRANCH  51  52
ATOM     52  O   UNL     1      -4.152   5.815   0.000  1.00  0.00    -0.394 OA
ATOM     53  H   UNL     1       0.000   0.000   0.000  1.00  0.00     0.210 HD
ENDBRANCH  51  52
ENDBRANCH  46  51
BRANCH  47  54
ATOM     54  O   UNL     1      -8.454   0.890   0.000  1.00  0.00    -0.387 OA
ATOM     55  H   UNL     1       0.000   0.000   0.000  1.00  0.00     0.211 HD
ENDBRANCH  47  54
BRANCH  48  56
ATOM     56  O   UNL     1      -8.216   3.881   0.000  1.00  0.00    -0.387 OA
ATOM     57  H   UNL     1       0.000   0.000   0.000  1.00  0.00     0.211 HD
ENDBRANCH  48  56
ENDBRANCH  42  43
ENDBRANCH   1  42
TORSDOF 15
