REMARK SMILES CC(=O)OC(C)(C)[C@@H]1CCc2c(C)ccc(C)c2C1
REMARK SMILES IDX 4 1 2 2 1 3 3 4 5 5 6 6 7 7 8 8 9 9 19 10 10 11 18 12 11 13
REMARK SMILES IDX 16 14 12 15 15 16 14 17 17 18 13 19
REMARK H PARENT
ROOT
ATOM      1  O   UNL     1       3.739  -0.803   0.000  1.00  0.00    -0.460 OA
ENDROOT
BRANCH   1   2
ATOM      2  C   UNL     1       4.507   0.486   0.000  1.00  0.00     0.303 C 
ATOM      3  C   UNL     1       6.007   0.465   0.000  1.00  0.00     0.139 C 
ATOM      4  O   UNL     1       3.775   1.795   0.000  1.00  0.00    -0.253 OA
ENDBRANCH   1   2
BRANCH   1   5
ATOM      5  C   UNL     1       2.240  -0.783   0.000  1.00  0.00     0.110 C 
ATOM      6  C   UNL     1       2.260   0.717   0.000  1.00  0.00     0.057 C 
ATOM      7  C   UNL     1       2.219  -2.283   0.000  1.00  0.00     0.057 C 
BRANCH   5   8
ATOM      8  C   UNL     1       0.740  -0.762   0.000  1.00  0.00     0.037 C 
ATOM      9  C   UNL     1      -0.028  -2.051   0.000  1.00  0.00     0.013 C 
ATOM     10  C   UNL     1       0.007   0.547   0.000  1.00  0.00     0.043 C 
ATOM     11  C   UNL     1      -1.528  -2.030   0.000  1.00  0.00     0.036 C 
ATOM     12  C   UNL     1      -1.492   0.567   0.000  1.00  0.00    -0.041 A 
ATOM     13  C   UNL     1      -2.260  -0.721   0.000  1.00  0.00    -0.042 A 
ATOM     14  C   UNL     1      -2.225   1.877   0.000  1.00  0.00    -0.048 A 
ATOM     15  C   UNL     1      -3.760  -0.701   0.000  1.00  0.00    -0.048 A 
ATOM     16  C   UNL     1      -3.724   1.897   0.000  1.00  0.00     0.004 A 
ATOM     17  C   UNL     1      -4.492   0.608   0.000  1.00  0.00     0.004 A 
ATOM     18  C   UNL     1      -1.457   3.165   0.000  1.00  0.00     0.044 C 
ATOM     19  C   UNL     1      -4.527  -1.990   0.000  1.00  0.00     0.044 C 
ENDBRANCH   5   8
ENDBRANCH   1   5
TORSDOF 3
