REMARK SMILES COc1cc2c(=O)c3c(O)cccc3oc2c(O)c1OC
REMARK SMILES IDX 3 1 4 2 5 3 16 4 15 5 14 6 13 7 12 8 11 9 9 10 8 11 6 12
REMARK SMILES IDX 7 13 17 14 19 15 2 16 1 17 20 18 21 19 18 20 10 22
REMARK H PARENT 18 21 10 23
ROOT
ATOM      1  C   UNL     1      -2.804   0.694   0.000  1.00  0.00     0.165 A 
ATOM      2  C   UNL     1      -1.457   1.353   0.000  1.00  0.00     0.066 A 
ATOM      3  C   UNL     1      -0.212   0.516   0.000  1.00  0.00     0.073 A 
ATOM      4  C   UNL     1      -0.316  -0.981   0.000  1.00  0.00     0.184 A 
ATOM      5  O   UNL     1       0.929  -1.818   0.000  1.00  0.00    -0.452 OA
ATOM      6  C   UNL     1       2.276  -1.159   0.000  1.00  0.00     0.142 A 
ATOM      7  C   UNL     1       3.521  -1.997   0.000  1.00  0.00     0.048 A 
ATOM      8  C   UNL     1       4.868  -1.338   0.000  1.00  0.00     0.008 A 
ATOM      9  C   UNL     1       4.971   0.159   0.000  1.00  0.00     0.047 A 
ATOM     10  C   UNL     1       3.727   0.996   0.000  1.00  0.00     0.130 A 
ATOM     11  C   UNL     1       2.379   0.337   0.000  1.00  0.00     0.107 A 
ATOM     12  C   UNL     1       1.135   1.175   0.000  1.00  0.00     0.204 A 
ATOM     13  O   UNL     1       1.238   2.671   0.000  1.00  0.00    -0.288 OA
ATOM     14  C   UNL     1      -1.663  -1.640   0.000  1.00  0.00     0.206 A 
ATOM     15  C   UNL     1      -2.908  -0.802   0.000  1.00  0.00     0.207 A 
ENDROOT
BRANCH   1  16
ATOM     16  O   UNL     1      -4.049   1.532   0.000  1.00  0.00    -0.493 OA
ATOM     17  C   UNL     1      -3.946   3.028   0.000  1.00  0.00     0.278 C 
ENDBRANCH   1  16
BRANCH  15  18
ATOM     18  O   UNL     1      -4.255  -1.461   0.000  1.00  0.00    -0.490 OA
ATOM     19  C   UNL     1      -5.499  -0.624   0.000  1.00  0.00     0.278 C 
ENDBRANCH  15  18
BRANCH  14  20
ATOM     20  O   UNL     1      -1.766  -3.136   0.000  1.00  0.00    -0.502 OA
ATOM     21  H   UNL     1       0.000   0.000   0.000  1.00  0.00     0.293 HD
ENDBRANCH  14  20
BRANCH  10  22
ATOM     22  O   UNL     1       3.830   2.493   0.000  1.00  0.00    -0.507 OA
ATOM     23  H   UNL     1       0.000   0.000   0.000  1.00  0.00     0.293 HD
ENDBRANCH  10  22
TORSDOF 4
