REMARK SMILES COc1cc2oc(=O)cc(-c3ccccc3)c2cc1O
REMARK SMILES IDX 3 1 4 2 5 3 17 4 18 5 19 6 10 7 9 8 7 9 8 10 6 11 2 12 1 13
REMARK SMILES IDX 20 14 11 16 12 17 16 18 13 19 15 20 14 21
REMARK H PARENT 20 15
ROOT
ATOM      1  C   UNL     1      -3.081  -0.880   0.000  1.00  0.00     0.164 A 
ATOM      2  C   UNL     1      -2.866   0.604   0.000  1.00  0.00     0.098 A 
ATOM      3  C   UNL     1      -1.473   1.161   0.000  1.00  0.00     0.143 A 
ATOM      4  C   UNL     1      -0.294   0.232   0.000  1.00  0.00     0.029 A 
ATOM      5  C   UNL     1      -0.509  -1.252   0.000  1.00  0.00     0.062 A 
ATOM      6  C   UNL     1      -1.903  -1.809   0.000  1.00  0.00     0.158 A 
ATOM      7  C   UNL     1       1.099   0.788   0.000  1.00  0.00    -0.000 A 
ATOM      8  C   UNL     1       1.313   2.273   0.000  1.00  0.00     0.103 A 
ATOM      9  C   UNL     1       0.135   3.201   0.000  1.00  0.00     0.336 A 
ATOM     10  O   UNL     1       0.350   4.686   0.000  1.00  0.00    -0.246 OA
ATOM     11  O   UNL     1      -1.258   2.645   0.000  1.00  0.00    -0.423 OA
ENDROOT
BRANCH   1  12
ATOM     12  O   UNL     1      -4.474  -1.436   0.000  1.00  0.00    -0.493 OA
ATOM     13  C   UNL     1      -5.652  -0.508   0.000  1.00  0.00     0.278 C 
ENDBRANCH   1  12
BRANCH   6  14
ATOM     14  O   UNL     1      -2.117  -3.293   0.000  1.00  0.00    -0.504 OA
ATOM     15  H   UNL     1       0.000   0.000   0.000  1.00  0.00     0.293 HD
ENDBRANCH   6  14
BRANCH   7  16
ATOM     16  C   UNL     1       2.277  -0.140   0.000  1.00  0.00    -0.017 A 
ATOM     17  C   UNL     1       2.062  -1.625   0.000  1.00  0.00     0.009 A 
ATOM     18  C   UNL     1       3.670   0.416   0.000  1.00  0.00     0.009 A 
ATOM     19  C   UNL     1       3.240  -2.553   0.000  1.00  0.00     0.001 A 
ATOM     20  C   UNL     1       4.848  -0.512   0.000  1.00  0.00     0.001 A 
ATOM     21  C   UNL     1       4.633  -1.997   0.000  1.00  0.00     0.000 A 
ENDBRANCH   7  16
TORSDOF 3
