REMARK SMILES COc1ccc(C[C@@H]2COC(=O)[C@@H]2Cc2ccc3c(c2)OCO3)cc1OC
REMARK SMILES IDX 7 1 6 2 3 3 4 4 25 5 5 6 24 7 2 8 1 9 26 10 27 11 8 12 9 13
REMARK SMILES IDX 13 14 10 15 11 16 12 17 14 18 15 19 16 20 20 21 17 22 19 23
REMARK SMILES IDX 18 24 21 25 23 26 22 27
REMARK H PARENT
ROOT
ATOM      1  C   UNL     1       1.516   0.451   0.000  1.00  0.00     0.043 C 
ENDROOT
BRANCH   1   2
ATOM      2  C   UNL     1       3.007   0.287   0.000  1.00  0.00    -0.044 A 
ATOM      3  C   UNL     1       5.989  -0.041   0.000  1.00  0.00     0.160 A 
ATOM      4  C   UNL     1       5.101  -1.250   0.000  1.00  0.00     0.051 A 
ATOM      5  C   UNL     1       5.385   1.333   0.000  1.00  0.00     0.160 A 
ATOM      6  C   UNL     1       3.610  -1.086   0.000  1.00  0.00     0.008 A 
ATOM      7  C   UNL     1       3.894   1.497   0.000  1.00  0.00     0.054 A 
BRANCH   3   8
ATOM      8  O   UNL     1       7.480  -0.204   0.000  1.00  0.00    -0.493 OA
ATOM      9  C   UNL     1       8.083  -1.578   0.000  1.00  0.00     0.278 C 
ENDBRANCH   3   8
BRANCH   5  10
ATOM     10  O   UNL     1       6.272   2.542   0.000  1.00  0.00    -0.493 OA
ATOM     11  C   UNL     1       5.669   3.915   0.000  1.00  0.00     0.278 C 
ENDBRANCH   5  10
ENDBRANCH   1   2
BRANCH   1  12
ATOM     12  C   UNL     1       0.628  -0.758   0.000  1.00  0.00     0.046 C 
ATOM     13  C   UNL     1       1.085  -2.187   0.000  1.00  0.00     0.237 C 
ATOM     14  C   UNL     1      -0.872  -0.751   0.000  1.00  0.00     0.110 C 
ATOM     15  O   UNL     1      -0.133  -3.063   0.000  1.00  0.00    -0.465 OA
ATOM     16  C   UNL     1      -1.342  -2.175   0.000  1.00  0.00     0.309 C 
ATOM     17  O   UNL     1      -2.771  -2.632   0.000  1.00  0.00    -0.252 OA
BRANCH  14  18
ATOM     18  C   UNL     1      -1.748   0.467   0.000  1.00  0.00     0.051 C 
BRANCH  18  19
ATOM     19  C   UNL     1      -3.240   0.317   0.000  1.00  0.00    -0.043 A 
ATOM     20  C   UNL     1      -3.857  -1.050   0.000  1.00  0.00     0.008 A 
ATOM     21  C   UNL     1      -4.116   1.535   0.000  1.00  0.00     0.054 A 
ATOM     22  C   UNL     1      -5.349  -1.200   0.000  1.00  0.00     0.051 A 
ATOM     23  C   UNL     1      -5.609   1.385   0.000  1.00  0.00     0.166 A 
ATOM     24  C   UNL     1      -6.225   0.018   0.000  1.00  0.00     0.165 A 
ATOM     25  O   UNL     1      -6.719   2.394   0.000  1.00  0.00    -0.454 OA
ATOM     26  O   UNL     1      -7.716   0.182   0.000  1.00  0.00    -0.454 OA
ATOM     27  C   UNL     1      -8.021   1.651   0.000  1.00  0.00     0.468 C 
ENDBRANCH  18  19
ENDBRANCH  14  18
ENDBRANCH   1  12
TORSDOF 6
