REMARK SMILES COc1ccc(CCC(=O)O)c2c1[C@@H]([C@H](O)C(C)(C)O)OC(C)(C)O2
REMARK SMILES IDX 3 1 4 2 5 3 6 4 12 5 13 6 14 7 21 8 22 9 23 10 24 11 25 12
REMARK SMILES IDX 2 13 1 14 15 15 16 16 17 18 18 19 19 20 20 21 7 23 8 24 9 25
REMARK SMILES IDX 10 26 11 27
REMARK H PARENT 16 17 20 22 11 28
ROOT
ATOM      1  C   UNL     1       0.536  -1.965   0.000  1.00  0.00     0.128 A 
ATOM      2  C   UNL     1      -0.736  -2.759   0.000  1.00  0.00     0.047 A 
ATOM      3  C   UNL     1      -2.061  -2.054   0.000  1.00  0.00     0.011 A 
ATOM      4  C   UNL     1      -2.112  -0.555   0.000  1.00  0.00    -0.004 A 
ATOM      5  C   UNL     1      -0.840   0.239   0.000  1.00  0.00     0.136 A 
ATOM      6  C   UNL     1       0.484  -0.466   0.000  1.00  0.00     0.068 A 
ATOM      7  C   UNL     1       1.756   0.329   0.000  1.00  0.00     0.192 C 
ATOM      8  O   UNL     1       1.704   1.828   0.000  1.00  0.00    -0.329 OA
ATOM      9  C   UNL     1       0.380   2.533   0.000  1.00  0.00     0.205 C 
ATOM     10  C   UNL     1      -0.623   3.648   0.000  1.00  0.00     0.090 C 
ATOM     11  C   UNL     1       1.304   3.715   0.000  1.00  0.00     0.090 C 
ATOM     12  O   UNL     1      -0.892   1.738   0.000  1.00  0.00    -0.462 OA
ENDROOT
BRANCH   1  13
ATOM     13  O   UNL     1       1.860  -2.669   0.000  1.00  0.00    -0.496 OA
ATOM     14  C   UNL     1       1.912  -4.168   0.000  1.00  0.00     0.278 C 
ENDBRANCH   1  13
BRANCH   7  15
ATOM     15  C   UNL     1       3.081  -0.376   0.000  1.00  0.00     0.179 C 
BRANCH  15  16
ATOM     16  O   UNL     1       3.132  -1.875   0.000  1.00  0.00    -0.387 OA
ATOM     17  H   UNL     1       0.000   0.000   0.000  1.00  0.00     0.211 HD
ENDBRANCH  15  16
BRANCH  15  18
ATOM     18  C   UNL     1       4.353   0.419   0.000  1.00  0.00     0.088 C 
ATOM     19  C   UNL     1       3.558   1.691   0.000  1.00  0.00     0.045 C 
ATOM     20  C   UNL     1       5.147  -0.853   0.000  1.00  0.00     0.045 C 
BRANCH  18  21
ATOM     21  O   UNL     1       5.625   1.213   0.000  1.00  0.00    -0.388 OA
ATOM     22  H   UNL     1       0.000   0.000   0.000  1.00  0.00     0.211 HD
ENDBRANCH  18  21
ENDBRANCH  15  18
ENDBRANCH   7  15
BRANCH   4  23
ATOM     23  C   UNL     1      -3.437   0.149   0.000  1.00  0.00     0.051 C 
BRANCH  23  24
ATOM     24  C   UNL     1      -4.709  -0.645   0.000  1.00  0.00     0.127 C 
BRANCH  24  25
ATOM     25  C   UNL     1      -6.033   0.059   0.000  1.00  0.00     0.303 C 
ATOM     26  O   UNL     1      -6.085   1.558   0.000  1.00  0.00    -0.252 OA
BRANCH  25  27
ATOM     27  O   UNL     1      -7.306  -0.735   0.000  1.00  0.00    -0.481 OA
ATOM     28  H   UNL     1       0.000   0.000   0.000  1.00  0.00     0.296 HD
ENDBRANCH  25  27
ENDBRANCH  24  25
ENDBRANCH  23  24
ENDBRANCH   4  23
TORSDOF 9
