REMARK SMILES O=c1cc(-c2ccc(O)c(O)c2)oc2c([C@@H]3O[C@H](CO)[C@@H](O)[C@H](O)[C@H]3O)c(O)cc(O)c12
REMARK SMILES IDX 1 1 2 2 3 3 4 4 13 5 14 6 15 7 27 8 29 9 30 10 32 11 5 12
REMARK SMILES IDX 6 13 12 14 7 15 10 16 8 17 11 18 9 20 31 22 16 24 17 25
REMARK SMILES IDX 25 26 18 27 23 28 21 29 26 30 19 32 20 33 24 35 22 37 28 39
REMARK H PARENT 11 19 9 21 31 23 26 31 20 34 24 36 22 38 28 40
ROOT
ATOM      1  O   UNL     1      -1.732  -4.852   0.000  1.00  0.00    -0.289 OA
ATOM      2  C   UNL     1      -1.352  -3.401   0.000  1.00  0.00     0.197 A 
ATOM      3  C   UNL     1      -2.419  -2.347   0.000  1.00  0.00     0.100 A 
ATOM      4  C   UNL     1      -2.039  -0.896   0.000  1.00  0.00     0.138 A 
ATOM      5  O   UNL     1      -0.592  -0.499   0.000  1.00  0.00    -0.455 OA
ATOM      6  C   UNL     1       0.474  -1.554   0.000  1.00  0.00     0.152 A 
ATOM      7  C   UNL     1       1.921  -1.157   0.000  1.00  0.00     0.069 A 
ATOM      8  C   UNL     1       2.988  -2.212   0.000  1.00  0.00     0.128 A 
ATOM      9  C   UNL     1       2.608  -3.663   0.000  1.00  0.00     0.093 A 
ATOM     10  C   UNL     1       1.161  -4.059   0.000  1.00  0.00     0.134 A 
ATOM     11  C   UNL     1       0.095  -3.005   0.000  1.00  0.00     0.107 A 
ENDROOT
BRANCH   4  12
ATOM     12  C   UNL     1      -3.106   0.159   0.000  1.00  0.00     0.021 A 
ATOM     13  C   UNL     1      -2.726   1.610   0.000  1.00  0.00     0.016 A 
ATOM     14  C   UNL     1      -4.552  -0.238   0.000  1.00  0.00     0.062 A 
ATOM     15  C   UNL     1      -3.792   2.664   0.000  1.00  0.00     0.051 A 
ATOM     16  C   UNL     1      -5.619   0.817   0.000  1.00  0.00     0.158 A 
ATOM     17  C   UNL     1      -5.239   2.268   0.000  1.00  0.00     0.157 A 
BRANCH  16  18
ATOM     18  O   UNL     1      -7.066   0.420   0.000  1.00  0.00    -0.504 OA
ATOM     19  H   UNL     1       0.000   0.000   0.000  1.00  0.00     0.293 HD
ENDBRANCH  16  18
BRANCH  17  20
ATOM     20  O   UNL     1      -6.306   3.322   0.000  1.00  0.00    -0.504 OA
ATOM     21  H   UNL     1       0.000   0.000   0.000  1.00  0.00     0.293 HD
ENDBRANCH  17  20
ENDBRANCH   4  12
BRANCH  10  22
ATOM     22  O   UNL     1       0.781  -5.510   0.000  1.00  0.00    -0.507 OA
ATOM     23  H   UNL     1       0.000   0.000   0.000  1.00  0.00     0.293 HD
ENDBRANCH  10  22
BRANCH   7  24
ATOM     24  C   UNL     1       2.301   0.294   0.000  1.00  0.00     0.188 C 
ATOM     25  O   UNL     1       3.748   0.691   0.000  1.00  0.00    -0.362 OA
ATOM     26  C   UNL     1       1.234   1.349   0.000  1.00  0.00     0.179 C 
ATOM     27  C   UNL     1       4.128   2.142   0.000  1.00  0.00     0.176 C 
ATOM     28  C   UNL     1       1.614   2.800   0.000  1.00  0.00     0.177 C 
ATOM     29  C   UNL     1       3.061   3.196   0.000  1.00  0.00     0.177 C 
BRANCH  26  30
ATOM     30  O   UNL     1      -0.212   0.952   0.000  1.00  0.00    -0.387 OA
ATOM     31  H   UNL     1       0.000   0.000   0.000  1.00  0.00     0.211 HD
ENDBRANCH  26  30
BRANCH  27  32
ATOM     32  C   UNL     1       5.574   2.538   0.000  1.00  0.00     0.191 C 
BRANCH  32  33
ATOM     33  O   UNL     1       6.641   1.484   0.000  1.00  0.00    -0.394 OA
ATOM     34  H   UNL     1       0.000   0.000   0.000  1.00  0.00     0.210 HD
ENDBRANCH  32  33
ENDBRANCH  27  32
BRANCH  28  35
ATOM     35  O   UNL     1       0.547   3.854   0.000  1.00  0.00    -0.387 OA
ATOM     36  H   UNL     1       0.000   0.000   0.000  1.00  0.00     0.211 HD
ENDBRANCH  28  35
BRANCH  29  37
ATOM     37  O   UNL     1       3.441   4.647   0.000  1.00  0.00    -0.388 OA
ATOM     38  H   UNL     1       0.000   0.000   0.000  1.00  0.00     0.211 HD
ENDBRANCH  29  37
ENDBRANCH   7  24
BRANCH   8  39
ATOM     39  O   UNL     1       4.434  -1.815   0.000  1.00  0.00    -0.507 OA
ATOM     40  H   UNL     1       0.000   0.000   0.000  1.00  0.00     0.293 HD
ENDBRANCH   8  39
TORSDOF 11
