REMARK SMILES COc1c2occc2c(Cl)c2ccc(=O)oc12
REMARK SMILES IDX 3 1 4 2 5 3 6 4 7 5 8 6 9 7 10 8 11 9 17 10 16 11 14 12
REMARK SMILES IDX 15 13 13 14 12 15 2 16 1 17
REMARK H PARENT
ROOT
ATOM      1  C   UNL     1      -0.450  -1.195   0.000  1.00  0.00     0.206 A 
ATOM      2  C   UNL     1      -1.756  -0.457   0.000  1.00  0.00     0.181 A 
ATOM      3  O   UNL     1      -3.178  -0.934   0.000  1.00  0.00    -0.460 OA
ATOM      4  C   UNL     1      -4.071   0.272   0.000  1.00  0.00     0.196 A 
ATOM      5  C   UNL     1      -3.200   1.493   0.000  1.00  0.00     0.052 A 
ATOM      6  C   UNL     1      -1.769   1.043   0.000  1.00  0.00     0.044 A 
ATOM      7  C   UNL     1      -0.477   1.805   0.000  1.00  0.00     0.063 A 
ATOM      8  Cl  UNL     1      -0.491   3.304   0.000  1.00  0.00    -0.083 Cl
ATOM      9  C   UNL     1       0.829   1.066   0.000  1.00  0.00     0.041 A 
ATOM     10  C   UNL     1       0.843  -0.433   0.000  1.00  0.00     0.185 A 
ATOM     11  O   UNL     1       2.148  -1.172   0.000  1.00  0.00    -0.419 OA
ATOM     12  C   UNL     1       3.441  -0.410   0.000  1.00  0.00     0.336 A 
ATOM     13  O   UNL     1       4.746  -1.148   0.000  1.00  0.00    -0.246 OA
ATOM     14  C   UNL     1       3.427   1.090   0.000  1.00  0.00     0.094 A 
ATOM     15  C   UNL     1       2.121   1.828   0.000  1.00  0.00     0.021 A 
ENDROOT
BRANCH   1  16
ATOM     16  O   UNL     1      -0.436  -2.695   0.000  1.00  0.00    -0.490 OA
ATOM     17  C   UNL     1      -1.728  -3.457   0.000  1.00  0.00     0.278 C 
ENDBRANCH   1  16
TORSDOF 1
