REMARK SMILES C=C/C(C)=C/C[C@]1(C)[C@H]2C[C@H](OC(C)=O)C=C3[C@H](OC(C)=O)O[C@@H](OC(C)=O)[C@@]32[C@H](OC(=O)/C=C/c2ccccc2)C[C@@H]1C
REMARK SMILES IDX 7 1 8 2 9 3 10 4 11 5 16 6 17 7 18 8 23 9 24 10 29 11 30 12
REMARK SMILES IDX 42 13 43 14 44 15 6 16 5 17 3 18 4 19 2 20 1 21 12 22 13 23
REMARK SMILES IDX 14 24 15 25 25 26 26 27 27 28 28 29 31 30 32 31 33 32 34 33
REMARK SMILES IDX 35 34 36 35 37 36 41 37 38 38 40 39 39 40 19 41 20 42 21 43
REMARK SMILES IDX 22 44
REMARK H PARENT
ROOT
ATOM      1  C   UNL     1       2.076  -1.218   0.000  1.00  0.00    -0.022 C 
ATOM      2  C   UNL     1       3.483  -2.758   0.000  1.00  0.00     0.012 C 
ATOM      3  C   UNL     1       2.475   0.019   0.000  1.00  0.00     0.020 C 
ATOM      4  C   UNL     1       3.625   0.982   0.000  1.00  0.00     0.055 C 
ATOM      5  C   UNL     1       3.366   2.460   0.000  1.00  0.00     0.200 C 
ATOM      6  C   UNL     1       1.957   2.974   0.000  1.00  0.00     0.024 C 
ATOM      7  C   UNL     1       0.807   2.011   0.000  1.00  0.00     0.014 C 
ATOM      8  C   UNL     1      -0.678   2.221   0.000  1.00  0.00     0.343 C 
ATOM      9  O   UNL     1      -1.337   0.874   0.000  1.00  0.00    -0.298 OA
ATOM     10  C   UNL     1      -0.259  -0.169   0.000  1.00  0.00     0.328 C 
ATOM     11  C   UNL     1       1.066   0.534   0.000  1.00  0.00     0.100 C 
ATOM     12  C   UNL     1       0.574  -0.669   0.000  1.00  0.00     0.194 C 
ATOM     13  C   UNL     1       0.712  -1.457   0.000  1.00  0.00     0.050 C 
ATOM     14  C   UNL     1       1.463  -1.732   0.000  1.00  0.00    -0.004 C 
ATOM     15  C   UNL     1       1.843  -3.899   0.000  1.00  0.00     0.008 C 
ENDROOT
BRANCH   1  16
ATOM     16  C   UNL     1       4.144  -0.947   0.000  1.00  0.00     0.035 C 
BRANCH  16  17
ATOM     17  C   UNL     1       5.292  -1.912   0.000  1.00  0.00    -0.023 C 
BRANCH  17  18
ATOM     18  C   UNL     1       6.702  -1.400   0.000  1.00  0.00    -0.056 C 
ATOM     19  C   UNL     1       6.964   0.077   0.000  1.00  0.00     0.044 C 
BRANCH  18  20
ATOM     20  C   UNL     1       7.850  -2.365   0.000  1.00  0.00    -0.005 C 
ATOM     21  C   UNL     1       7.588  -3.842   0.000  1.00  0.00     0.009 C 
ENDBRANCH  18  20
ENDBRANCH  17  18
ENDBRANCH  16  17
ENDBRANCH   1  16
BRANCH   5  22
ATOM     22  O   UNL     1       4.516   3.423   0.000  1.00  0.00    -0.458 OA
BRANCH  22  23
ATOM     23  C   UNL     1       5.925   2.909   0.000  1.00  0.00     0.303 C 
ATOM     24  C   UNL     1       7.075   3.872   0.000  1.00  0.00     0.139 C 
ATOM     25  O   UNL     1       6.184   1.431   0.000  1.00  0.00    -0.253 OA
ENDBRANCH  22  23
ENDBRANCH   5  22
BRANCH  10  26
ATOM     26  O   UNL     1      -0.469  -1.654   0.000  1.00  0.00    -0.435 OA
BRANCH  26  27
ATOM     27  C   UNL     1      -1.861  -2.215   0.000  1.00  0.00     0.304 C 
ATOM     28  C   UNL     1      -2.071  -3.700   0.000  1.00  0.00     0.139 C 
ATOM     29  O   UNL     1      -3.230  -1.604   0.000  1.00  0.00    -0.253 OA
ENDBRANCH  26  27
ENDBRANCH  10  26
BRANCH  12  30
ATOM     30  O   UNL     1      -1.493   0.085   0.000  1.00  0.00    -0.458 OA
BRANCH  30  31
ATOM     31  C   UNL     1      -2.643  -0.878   0.000  1.00  0.00     0.331 C 
ATOM     32  O   UNL     1      -2.749  -2.374   0.000  1.00  0.00    -0.247 OA
BRANCH  31  33
ATOM     33  C   UNL     1      -4.052  -0.364   0.000  1.00  0.00     0.094 C 
BRANCH  33  34
ATOM     34  C   UNL     1      -5.202  -1.327   0.000  1.00  0.00     0.015 C 
BRANCH  34  35
ATOM     35  C   UNL     1      -6.611  -0.812   0.000  1.00  0.00    -0.025 A 
ATOM     36  C   UNL     1      -6.870   0.665   0.000  1.00  0.00     0.008 A 
ATOM     37  C   UNL     1      -7.761  -1.775   0.000  1.00  0.00     0.008 A 
ATOM     38  C   UNL     1      -8.279   1.180   0.000  1.00  0.00     0.001 A 
ATOM     39  C   UNL     1      -9.170  -1.261   0.000  1.00  0.00     0.001 A 
ATOM     40  C   UNL     1      -9.429   0.216   0.000  1.00  0.00     0.000 A 
ENDBRANCH  34  35
ENDBRANCH  33  34
ENDBRANCH  31  33
ENDBRANCH  30  31
ENDBRANCH  12  30
BRANCH   8  41
ATOM     41  O   UNL     1      -1.381   3.546   0.000  1.00  0.00    -0.432 OA
BRANCH  41  42
ATOM     42  C   UNL     1      -2.880   3.600   0.000  1.00  0.00     0.305 C 
ATOM     43  C   UNL     1      -3.583   4.925   0.000  1.00  0.00     0.139 C 
ATOM     44  O   UNL     1      -3.676   2.329   0.000  1.00  0.00    -0.253 OA
ENDBRANCH  41  42
ENDBRANCH   8  41
TORSDOF 15
