REMARK SMILES COc1c2ccoc2nc2c3c(ccc12)OCO3
REMARK SMILES IDX 1 1 2 2 3 3 4 4 15 5 5 6 8 7 14 8 10 9 6 10 7 11 9 12 13 13
REMARK SMILES IDX 11 14 12 15 18 16 16 17 17 18
REMARK H PARENT
ROOT
ATOM      1  C   UNL     1      -3.522  -2.580   0.000  1.00  0.00     0.278 C 
ATOM      2  O   UNL     1      -2.029  -2.438   0.000  1.00  0.00    -0.495 OA
ENDROOT
BRANCH   2   3
ATOM      3  C   UNL     1      -1.405  -1.074   0.000  1.00  0.00     0.141 A 
ATOM      4  C   UNL     1      -2.274   0.148   0.000  1.00  0.00     0.083 A 
ATOM      5  C   UNL     1       0.088  -0.932   0.000  1.00  0.00     0.047 A 
ATOM      6  C   UNL     1      -3.764   0.320   0.000  1.00  0.00     0.056 A 
ATOM      7  C   UNL     1      -1.650   1.513   0.000  1.00  0.00     0.230 A 
ATOM      8  C   UNL     1       0.958  -2.154   0.000  1.00  0.00     0.018 A 
ATOM      9  C   UNL     1       0.712   0.432   0.000  1.00  0.00     0.124 A 
ATOM     10  C   UNL     1      -4.061   1.790   0.000  1.00  0.00     0.198 A 
ATOM     11  O   UNL     1      -2.755   2.527   0.000  1.00  0.00    -0.446 OA
ATOM     12  N   UNL     1      -0.157   1.654   0.000  1.00  0.00    -0.208 NA
ATOM     13  C   UNL     1       2.451  -2.013   0.000  1.00  0.00     0.051 A 
ATOM     14  C   UNL     1       2.206   0.574   0.000  1.00  0.00     0.192 A 
ATOM     15  C   UNL     1       3.075  -0.648   0.000  1.00  0.00     0.168 A 
ATOM     16  O   UNL     1       3.099   1.778   0.000  1.00  0.00    -0.451 OA
ATOM     17  O   UNL     1       4.506  -0.199   0.000  1.00  0.00    -0.454 OA
ATOM     18  C   UNL     1       4.521   1.301   0.000  1.00  0.00     0.468 C 
ENDBRANCH   2   3
TORSDOF 1
