REMARK SMILES CC(C)=C[C@@H]1C[C@](/C=C/c2ccc3[nH]ccc3c2)(CO)c2cc3cc[nH]c3cc21
REMARK SMILES IDX 5 1 6 2 7 3 21 4 22 5 23 6 27 7 28 8 29 9 26 10 25 11 24 12
REMARK SMILES IDX 4 14 2 15 1 16 3 17 8 18 9 19 10 20 11 21 18 22 12 23 17 24
REMARK SMILES IDX 13 25 16 26 14 27 15 28 19 30 20 31
REMARK H PARENT 26 13 14 29 20 32
ROOT
ATOM      1  C   UNL     1       3.500   0.912   0.000  1.00  0.00     0.043 C 
ATOM      2  C   UNL     1       2.309   1.825   0.000  1.00  0.00     0.031 C 
ATOM      3  C   UNL     1       1.074   0.974   0.000  1.00  0.00     0.038 C 
ATOM      4  C   UNL     1       1.501  -0.464   0.000  1.00  0.00    -0.031 A 
ATOM      5  C   UNL     1       0.718  -1.744   0.000  1.00  0.00     0.015 A 
ATOM      6  C   UNL     1       1.435  -3.061   0.000  1.00  0.00    -0.000 A 
ATOM      7  C   UNL     1       2.935  -3.099   0.000  1.00  0.00     0.046 A 
ATOM      8  C   UNL     1       3.717  -1.820   0.000  1.00  0.00     0.031 A 
ATOM      9  C   UNL     1       3.000  -0.502   0.000  1.00  0.00    -0.035 A 
ATOM     10  N   UNL     1       3.362  -4.537   0.000  1.00  0.00    -0.361 N 
ATOM     11  C   UNL     1       2.127  -5.388   0.000  1.00  0.00     0.083 A 
ATOM     12  C   UNL     1       0.936  -4.476   0.000  1.00  0.00     0.028 A 
ATOM     13  H   UNL     1       0.000   0.000   0.000  1.00  0.00     0.166 HD
ENDROOT
BRANCH   1  14
ATOM     14  C   UNL     1       4.938   1.340   0.000  1.00  0.00    -0.020 C 
BRANCH  14  15
ATOM     15  C   UNL     1       5.287   2.799   0.000  1.00  0.00    -0.080 C 
ATOM     16  C   UNL     1       6.724   3.226   0.000  1.00  0.00     0.039 C 
ATOM     17  C   UNL     1       4.198   3.830   0.000  1.00  0.00     0.039 C 
ENDBRANCH  14  15
ENDBRANCH   1  14
BRANCH   3  18
ATOM     18  C   UNL     1      -0.312   0.399   0.000  1.00  0.00    -0.012 C 
BRANCH  18  19
ATOM     19  C   UNL     1      -1.503   1.311   0.000  1.00  0.00     0.005 C 
BRANCH  19  20
ATOM     20  C   UNL     1      -2.888   0.735   0.000  1.00  0.00    -0.025 A 
ATOM     21  C   UNL     1      -3.082  -0.752   0.000  1.00  0.00     0.010 A 
ATOM     22  C   UNL     1      -4.079   1.647   0.000  1.00  0.00     0.018 A 
ATOM     23  C   UNL     1      -4.468  -1.327   0.000  1.00  0.00     0.027 A 
ATOM     24  C   UNL     1      -5.464   1.072   0.000  1.00  0.00    -0.000 A 
ATOM     25  C   UNL     1      -5.659  -0.415   0.000  1.00  0.00     0.045 A 
ATOM     26  C   UNL     1      -6.819   1.717   0.000  1.00  0.00     0.028 A 
ATOM     27  N   UNL     1      -7.133  -0.690   0.000  1.00  0.00    -0.361 N 
ATOM     28  C   UNL     1      -7.850   0.628   0.000  1.00  0.00     0.083 A 
ATOM     29  H   UNL     1       0.000   0.000   0.000  1.00  0.00     0.166 HD
ENDBRANCH  19  20
ENDBRANCH  18  19
ENDBRANCH   3  18
BRANCH   3  30
ATOM     30  C   UNL     1       0.357   2.291   0.000  1.00  0.00     0.172 C 
BRANCH  30  31
ATOM     31  O   UNL     1       1.139   3.571   0.000  1.00  0.00    -0.395 OA
ATOM     32  H   UNL     1       0.000   0.000   0.000  1.00  0.00     0.210 HD
ENDBRANCH  30  31
ENDBRANCH   3  30
TORSDOF 7
