REMARK SMILES C=C1/C=C/[C@H](C(C)C)CC/C(C)=C/CC1
REMARK SMILES IDX 4 1 3 2 2 3 1 4 15 5 14 6 13 7 5 9 6 10 7 11 8 12 9 13 10 14
REMARK SMILES IDX 11 15 12 16
REMARK H PARENT
REMARK Flexibility Score:   24.900
ROOT
ATOM      1  C   UNL     1      -0.790  -0.338   0.000  1.00  0.00    -0.023 C 
ENDROOT
BRANCH   1   2
ATOM      2  C   UNL     1      -0.990  -1.824   0.000  1.00  0.00    -0.001 C 
BRANCH   2   3
ATOM      3  C   UNL     1       0.362  -2.474   0.000  1.00  0.00    -0.055 C 
ATOM      4  C   UNL     1       0.162  -3.960   0.000  1.00  0.00     0.012 C 
BRANCH   3   5
ATOM      5  C   UNL     1       1.837  -2.204   0.000  1.00  0.00     0.039 C 
BRANCH   5   6
ATOM      6  C   UNL     1       2.873  -1.119   0.000  1.00  0.00     0.032 C 
BRANCH   6   7
ATOM      7  C   UNL     1       2.161   0.201   0.000  1.00  0.00    -0.028 CG0
ATOM      8  G   UNL     1       2.361   1.688   0.000  1.00  0.00     0.000 G0
ENDBRANCH   6   7
ENDBRANCH   5   6
ENDBRANCH   3   5
ENDBRANCH   2   3
ENDBRANCH   1   2
BRANCH   1   9
ATOM      9  C   UNL     1      -1.502   0.983   0.000  1.00  0.00     0.014 C 
BRANCH   9  10
ATOM     10  C   UNL     1      -2.978   0.714   0.000  1.00  0.00    -0.010 C 
ATOM     11  C   UNL     1      -3.949   1.857   0.000  1.00  0.00     0.008 C 
ATOM     12  C   UNL     1      -3.483  -0.699   0.000  1.00  0.00     0.008 C 
ENDBRANCH   9  10
BRANCH   9  13
ATOM     13  C   UNL     1      -0.467   2.068   0.000  1.00  0.00     0.012 C 
BRANCH  13  14
ATOM     14  C   UNL     1       1.009   2.337   0.000  1.00  0.00     0.031 C 
BRANCH  14  15
ATOM     15  C   UNL     1       2.361   1.688   0.000  1.00  0.00    -0.077 CG0
ATOM     16  C   UNL     1       3.396   2.773   0.000  1.00  0.00     0.039 C 
ATOM     17  G   UNL     1       2.161   0.201   0.000  1.00  0.00     0.000 G0
ENDBRANCH  14  15
ENDBRANCH  13  14
ENDBRANCH   9  13
ENDBRANCH   1   9
TORSDOF 1
