REMARK SMILES C=CCC1=C[C@](OC)([C@H](C)Cc2ccc(OC)c(OC)c2)C(OC)=CC1=O
REMARK SMILES IDX 9 1 10 2 6 3 4 4 5 5 26 6 25 7 22 8 27 9 3 10 2 11 1 12 7 13
REMARK SMILES IDX 8 14 23 15 24 16 11 17 12 18 13 19 21 20 14 21 18 22 15 23
REMARK SMILES IDX 19 24 20 25 16 26 17 27
REMARK H PARENT
ROOT
ATOM      1  C   UNL     1       0.702   1.091   0.000  1.00  0.00     0.034 C 
ATOM      2  C   UNL     1       0.235   2.516   0.000  1.00  0.00     0.012 C 
ENDROOT
BRANCH   1   3
ATOM      3  C   UNL     1       2.169   0.782   0.000  1.00  0.00     0.146 C 
ATOM      4  C   UNL     1       2.537  -1.790   0.000  1.00  0.00     0.003 C 
ATOM      5  C   UNL     1       1.611  -0.610   0.000  1.00  0.00     0.024 C 
ATOM      6  C   UNL     1       4.021  -1.578   0.000  1.00  0.00     0.185 C 
ATOM      7  C   UNL     1       4.580  -0.186   0.000  1.00  0.00     0.097 C 
ATOM      8  C   UNL     1       3.654   0.994   0.000  1.00  0.00     0.136 C 
ATOM      9  O   UNL     1       4.947  -2.758   0.000  1.00  0.00    -0.290 OA
BRANCH   4  10
ATOM     10  C   UNL     1       1.978  -3.182   0.000  1.00  0.00     0.066 C 
BRANCH  10  11
ATOM     11  C   UNL     1       0.493  -3.394   0.000  1.00  0.00    -0.030 C 
ATOM     12  C   UNL     1      -0.066  -4.786   0.000  1.00  0.00     0.004 C 
ENDBRANCH  10  11
ENDBRANCH   4  10
BRANCH   3  13
ATOM     13  O   UNL     1       2.219   2.281   0.000  1.00  0.00    -0.366 OA
ATOM     14  C   UNL     1       3.541   2.988   0.000  1.00  0.00     0.196 C 
ENDBRANCH   3  13
BRANCH   8  15
ATOM     15  O   UNL     1       4.213   2.386   0.000  1.00  0.00    -0.498 OA
ATOM     16  C   UNL     1       5.698   2.598   0.000  1.00  0.00     0.278 C 
ENDBRANCH   8  15
ENDBRANCH   1   3
BRANCH   1  17
ATOM     17  C   UNL     1      -0.300  -0.026   0.000  1.00  0.00     0.042 C 
BRANCH  17  18
ATOM     18  C   UNL     1      -1.768   0.282   0.000  1.00  0.00    -0.044 A 
ATOM     19  C   UNL     1      -2.234   1.708   0.000  1.00  0.00     0.008 A 
ATOM     20  C   UNL     1      -2.769  -0.835   0.000  1.00  0.00     0.054 A 
ATOM     21  C   UNL     1      -3.702   2.017   0.000  1.00  0.00     0.051 A 
ATOM     22  C   UNL     1      -4.237  -0.526   0.000  1.00  0.00     0.160 A 
ATOM     23  C   UNL     1      -4.704   0.900   0.000  1.00  0.00     0.160 A 
BRANCH  22  24
ATOM     24  O   UNL     1      -5.238  -1.643   0.000  1.00  0.00    -0.493 OA
ATOM     25  C   UNL     1      -4.771  -3.068   0.000  1.00  0.00     0.278 C 
ENDBRANCH  22  24
BRANCH  23  26
ATOM     26  O   UNL     1      -6.171   1.208   0.000  1.00  0.00    -0.493 OA
ATOM     27  C   UNL     1      -6.638   2.634   0.000  1.00  0.00     0.278 C 
ENDBRANCH  23  26
ENDBRANCH  17  18
ENDBRANCH   1  17
TORSDOF 9
