REMARK SMILES Oc1cc(O)c2c(c1)O[C@H](c1ccc(O)c(O)c1)[C@@H](O)C2
REMARK SMILES IDX 2 1 3 2 4 3 6 4 21 5 19 6 10 7 9 8 7 9 8 10 1 11 5 13 11 15
REMARK SMILES IDX 12 16 18 17 13 18 16 19 14 20 17 21 15 23 20 25
REMARK H PARENT 1 12 5 14 17 22 15 24 20 26
ROOT
ATOM      1  C   UNL     1      -4.541  -1.437   0.000  1.00  0.00     0.122 A 
ATOM      2  C   UNL     1      -4.983  -0.004   0.000  1.00  0.00     0.092 A 
ATOM      3  C   UNL     1      -3.963   1.096   0.000  1.00  0.00     0.126 A 
ATOM      4  C   UNL     1      -2.500   0.762   0.000  1.00  0.00     0.039 A 
ATOM      5  C   UNL     1      -1.480   1.861   0.000  1.00  0.00     0.079 C 
ATOM      6  C   UNL     1      -0.018   1.527   0.000  1.00  0.00     0.164 C 
ATOM      7  C   UNL     1       0.424   0.093   0.000  1.00  0.00     0.232 C 
ATOM      8  O   UNL     1      -0.596  -1.006   0.000  1.00  0.00    -0.482 OA
ATOM      9  C   UNL     1      -2.058  -0.672   0.000  1.00  0.00     0.131 A 
ATOM     10  C   UNL     1      -3.079  -1.771   0.000  1.00  0.00     0.093 A 
ENDROOT
BRANCH   1  11
ATOM     11  O   UNL     1      -5.562  -2.536   0.000  1.00  0.00    -0.508 OA
ATOM     12  H   UNL     1       0.000   0.000   0.000  1.00  0.00     0.293 HD
ENDBRANCH   1  11
BRANCH   3  13
ATOM     13  O   UNL     1      -4.404   2.529   0.000  1.00  0.00    -0.507 OA
ATOM     14  H   UNL     1       0.000   0.000   0.000  1.00  0.00     0.293 HD
ENDBRANCH   3  13
BRANCH   7  15
ATOM     15  C   UNL     1       1.887  -0.241   0.000  1.00  0.00    -0.001 A 
ATOM     16  C   UNL     1       2.329  -1.674   0.000  1.00  0.00     0.012 A 
ATOM     17  C   UNL     1       2.907   0.859   0.000  1.00  0.00     0.057 A 
ATOM     18  C   UNL     1       3.791  -2.008   0.000  1.00  0.00     0.050 A 
ATOM     19  C   UNL     1       4.370   0.525   0.000  1.00  0.00     0.157 A 
ATOM     20  C   UNL     1       4.811  -0.909   0.000  1.00  0.00     0.157 A 
BRANCH  19  21
ATOM     21  O   UNL     1       5.390   1.624   0.000  1.00  0.00    -0.504 OA
ATOM     22  H   UNL     1       0.000   0.000   0.000  1.00  0.00     0.293 HD
ENDBRANCH  19  21
BRANCH  20  23
ATOM     23  O   UNL     1       6.274  -1.243   0.000  1.00  0.00    -0.504 OA
ATOM     24  H   UNL     1       0.000   0.000   0.000  1.00  0.00     0.293 HD
ENDBRANCH  20  23
ENDBRANCH   7  15
BRANCH   6  25
ATOM     25  O   UNL     1       1.003   2.626   0.000  1.00  0.00    -0.389 OA
ATOM     26  H   UNL     1       0.000   0.000   0.000  1.00  0.00     0.211 HD
ENDBRANCH   6  25
TORSDOF 6
