REMARK SMILES COc1cc(O)cc2c1C(=O)[C@@H]1OCc3c(ccc(O)c3O)[C@H]1O2
REMARK SMILES IDX 3 1 4 2 5 3 7 4 8 5 9 6 10 7 11 8 12 9 13 10 14 11 15 12
REMARK SMILES IDX 16 13 17 14 18 15 19 16 21 17 23 18 24 19 2 20 1 21 6 22
REMARK SMILES IDX 22 24 20 26
REMARK H PARENT 6 23 22 25 20 27
ROOT
ATOM      1  C   UNL     1      -3.780  -0.512   0.000  1.00  0.00     0.137 A 
ATOM      2  C   UNL     1      -4.731   0.648   0.000  1.00  0.00     0.093 A 
ATOM      3  C   UNL     1      -4.201   2.051   0.000  1.00  0.00     0.123 A 
ATOM      4  C   UNL     1      -2.721   2.295   0.000  1.00  0.00     0.093 A 
ATOM      5  C   UNL     1      -1.770   1.135   0.000  1.00  0.00     0.138 A 
ATOM      6  C   UNL     1      -2.299  -0.269   0.000  1.00  0.00     0.105 A 
ATOM      7  C   UNL     1      -1.348  -1.429   0.000  1.00  0.00     0.203 C 
ATOM      8  O   UNL     1      -1.877  -2.832   0.000  1.00  0.00    -0.291 OA
ATOM      9  C   UNL     1       0.132  -1.185   0.000  1.00  0.00     0.235 C 
ATOM     10  O   UNL     1       1.083  -2.345   0.000  1.00  0.00    -0.361 OA
ATOM     11  C   UNL     1       2.563  -2.102   0.000  1.00  0.00     0.201 C 
ATOM     12  C   UNL     1       3.092  -0.698   0.000  1.00  0.00     0.030 A 
ATOM     13  C   UNL     1       2.141   0.462   0.000  1.00  0.00     0.005 A 
ATOM     14  C   UNL     1       2.670   1.866   0.000  1.00  0.00     0.012 A 
ATOM     15  C   UNL     1       4.150   2.109   0.000  1.00  0.00     0.050 A 
ATOM     16  C   UNL     1       5.101   0.949   0.000  1.00  0.00     0.157 A 
ATOM     17  C   UNL     1       4.572  -0.454   0.000  1.00  0.00     0.163 A 
ATOM     18  C   UNL     1       0.661   0.218   0.000  1.00  0.00     0.241 C 
ATOM     19  O   UNL     1      -0.290   1.379   0.000  1.00  0.00    -0.481 OA
ENDROOT
BRANCH   1  20
ATOM     20  O   UNL     1      -4.309  -1.916   0.000  1.00  0.00    -0.496 OA
ATOM     21  C   UNL     1      -5.789  -2.159   0.000  1.00  0.00     0.278 C 
ENDBRANCH   1  20
BRANCH   3  22
ATOM     22  O   UNL     1      -5.152   3.211   0.000  1.00  0.00    -0.508 OA
ATOM     23  H   UNL     1       0.000   0.000   0.000  1.00  0.00     0.293 HD
ENDBRANCH   3  22
BRANCH  17  24
ATOM     24  O   UNL     1       5.523  -1.614   0.000  1.00  0.00    -0.504 OA
ATOM     25  H   UNL     1       0.000   0.000   0.000  1.00  0.00     0.293 HD
ENDBRANCH  17  24
BRANCH  16  26
ATOM     26  O   UNL     1       6.581   1.193   0.000  1.00  0.00    -0.504 OA
ATOM     27  H   UNL     1       0.000   0.000   0.000  1.00  0.00     0.293 HD
ENDBRANCH  16  26
TORSDOF 4
