REMARK SMILES COc1cc2c(=O)c3ccccc3oc2c(OC)c1O
REMARK SMILES IDX 3 1 4 2 5 3 15 4 14 5 13 6 12 7 11 8 10 9 9 10 8 11 6 12
REMARK SMILES IDX 7 13 16 14 19 15 2 16 1 17 20 18 17 20 18 21
REMARK H PARENT 20 19
ROOT
ATOM      1  C   UNL     1      -2.746   0.939   0.000  1.00  0.00     0.165 A 
ATOM      2  C   UNL     1      -1.408   1.617   0.000  1.00  0.00     0.066 A 
ATOM      3  C   UNL     1      -0.152   0.797   0.000  1.00  0.00     0.073 A 
ATOM      4  C   UNL     1      -0.233  -0.701   0.000  1.00  0.00     0.184 A 
ATOM      5  O   UNL     1       1.023  -1.520   0.000  1.00  0.00    -0.452 OA
ATOM      6  C   UNL     1       2.361  -0.842   0.000  1.00  0.00     0.138 A 
ATOM      7  C   UNL     1       3.617  -1.662   0.000  1.00  0.00     0.048 A 
ATOM      8  C   UNL     1       4.955  -0.984   0.000  1.00  0.00     0.004 A 
ATOM      9  C   UNL     1       5.037   0.514   0.000  1.00  0.00     0.001 A 
ATOM     10  C   UNL     1       3.780   1.334   0.000  1.00  0.00     0.016 A 
ATOM     11  C   UNL     1       2.442   0.655   0.000  1.00  0.00     0.065 A 
ATOM     12  C   UNL     1       1.186   1.475   0.000  1.00  0.00     0.200 A 
ATOM     13  O   UNL     1       1.268   2.973   0.000  1.00  0.00    -0.288 OA
ATOM     14  C   UNL     1      -1.571  -1.379   0.000  1.00  0.00     0.208 A 
ATOM     15  C   UNL     1      -2.828  -0.559   0.000  1.00  0.00     0.204 A 
ENDROOT
BRANCH   1  16
ATOM     16  O   UNL     1      -4.002   1.758   0.000  1.00  0.00    -0.493 OA
ATOM     17  C   UNL     1      -3.921   3.256   0.000  1.00  0.00     0.278 C 
ENDBRANCH   1  16
BRANCH  15  18
ATOM     18  O   UNL     1      -4.166  -1.238   0.000  1.00  0.00    -0.502 OA
ATOM     19  H   UNL     1       0.000   0.000   0.000  1.00  0.00     0.293 HD
ENDBRANCH  15  18
BRANCH  14  20
ATOM     20  O   UNL     1      -1.653  -2.877   0.000  1.00  0.00    -0.490 OA
ATOM     21  C   UNL     1      -2.991  -3.555   0.000  1.00  0.00     0.278 C 
ENDBRANCH  14  20
TORSDOF 3
