REMARK SMILES COc1c(CC=C(C)C)c(=O)n(C)c2ccccc12
REMARK SMILES IDX 5 1 4 2 3 3 19 4 10 5 18 6 14 7 12 8 17 9 15 10 16 11 11 12
REMARK SMILES IDX 13 13 2 14 1 15 6 16 7 17 8 18 9 19
REMARK H PARENT
ROOT
ATOM      1  C   UNL     1      -2.156  -0.841   0.000  1.00  0.00     0.072 C 
ENDROOT
BRANCH   1   2
ATOM      2  C   UNL     1      -0.660  -0.733   0.000  1.00  0.00     0.064 A 
ATOM      3  C   UNL     1      -0.005   0.617   0.000  1.00  0.00     0.137 A 
ATOM      4  C   UNL     1       1.491   0.724   0.000  1.00  0.00     0.041 A 
ATOM      5  C   UNL     1       0.182  -1.975   0.000  1.00  0.00     0.258 A 
ATOM      6  C   UNL     1       2.146   2.074   0.000  1.00  0.00     0.014 A 
ATOM      7  C   UNL     1       2.333  -0.517   0.000  1.00  0.00     0.055 A 
ATOM      8  N   UNL     1       1.678  -1.867   0.000  1.00  0.00    -0.311 N 
ATOM      9  C   UNL     1       3.642   2.182   0.000  1.00  0.00     0.001 A 
ATOM     10  C   UNL     1       3.829  -0.410   0.000  1.00  0.00     0.027 A 
ATOM     11  C   UNL     1       4.484   0.940   0.000  1.00  0.00     0.002 A 
ATOM     12  O   UNL     1      -0.473  -3.324   0.000  1.00  0.00    -0.269 OA
ATOM     13  C   UNL     1       2.519  -3.109   0.000  1.00  0.00     0.153 C 
BRANCH   3  14
ATOM     14  O   UNL     1      -0.846   1.858   0.000  1.00  0.00    -0.496 OA
ATOM     15  C   UNL     1      -0.192   3.208   0.000  1.00  0.00     0.278 C 
ENDBRANCH   3  14
ENDBRANCH   1   2
BRANCH   1  16
ATOM     16  C   UNL     1      -2.997   0.401   0.000  1.00  0.00    -0.023 C 
BRANCH  16  17
ATOM     17  C   UNL     1      -4.493   0.293   0.000  1.00  0.00    -0.080 C 
ATOM     18  C   UNL     1      -5.335   1.535   0.000  1.00  0.00     0.039 C 
ATOM     19  C   UNL     1      -5.148  -1.056   0.000  1.00  0.00     0.039 C 
ENDBRANCH  16  17
ENDBRANCH   1  16
TORSDOF 4
