REMARK SMILES COc1cc(O)c2c(=O)c3cccc(O)c3[nH]c2c1OC
REMARK SMILES IDX 3 1 4 2 5 3 7 4 8 5 9 6 10 7 11 8 12 9 13 10 14 11 16 12
REMARK SMILES IDX 17 13 18 14 19 15 2 17 1 18 20 19 21 20 6 21 15 23
REMARK H PARENT 17 16 6 22 15 24
ROOT
ATOM      1  C   UNL     1      -3.231  -0.188   0.000  1.00  0.00     0.166 A 
ATOM      2  C   UNL     1      -2.979  -1.667   0.000  1.00  0.00     0.097 A 
ATOM      3  C   UNL     1      -1.573  -2.188   0.000  1.00  0.00     0.132 A 
ATOM      4  C   UNL     1      -0.418  -1.230   0.000  1.00  0.00     0.092 A 
ATOM      5  C   UNL     1       0.989  -1.752   0.000  1.00  0.00     0.201 A 
ATOM      6  O   UNL     1       1.240  -3.231   0.000  1.00  0.00    -0.288 OA
ATOM      7  C   UNL     1       2.143  -0.794   0.000  1.00  0.00     0.050 A 
ATOM      8  C   UNL     1       3.550  -1.315   0.000  1.00  0.00     0.014 A 
ATOM      9  C   UNL     1       4.705  -0.358   0.000  1.00  0.00     0.005 A 
ATOM     10  C   UNL     1       4.453   1.121   0.000  1.00  0.00     0.048 A 
ATOM     11  C   UNL     1       3.046   1.642   0.000  1.00  0.00     0.139 A 
ATOM     12  C   UNL     1       1.891   0.684   0.000  1.00  0.00     0.092 A 
ATOM     13  N   UNL     1       0.485   1.206   0.000  1.00  0.00    -0.348 N 
ATOM     14  C   UNL     1      -0.670   0.248   0.000  1.00  0.00     0.100 A 
ATOM     15  C   UNL     1      -2.076   0.769   0.000  1.00  0.00     0.185 A 
ATOM     16  H   UNL     1       0.000   0.000   0.000  1.00  0.00     0.167 HD
ENDROOT
BRANCH   1  17
ATOM     17  O   UNL     1      -4.638   0.333   0.000  1.00  0.00    -0.493 OA
ATOM     18  C   UNL     1      -4.889   1.812   0.000  1.00  0.00     0.278 C 
ENDBRANCH   1  17
BRANCH  15  19
ATOM     19  O   UNL     1      -2.328   2.248   0.000  1.00  0.00    -0.491 OA
ATOM     20  C   UNL     1      -1.173   3.206   0.000  1.00  0.00     0.278 C 
ENDBRANCH  15  19
BRANCH   3  21
ATOM     21  O   UNL     1      -1.321  -3.667   0.000  1.00  0.00    -0.507 OA
ATOM     22  H   UNL     1       0.000   0.000   0.000  1.00  0.00     0.293 HD
ENDBRANCH   3  21
BRANCH  11  23
ATOM     23  O   UNL     1       2.794   3.121   0.000  1.00  0.00    -0.506 OA
ATOM     24  H   UNL     1       0.000   0.000   0.000  1.00  0.00     0.293 HD
ENDBRANCH  11  23
TORSDOF 4
