REMARK SMILES CC(=O)O[C@@H]1C[C@H]2C(C)(C)C(=O)C=C[C@]2(C)[C@H]2CC[C@]3(C)C(=CC[C@H]3[C@H]3COC(=O)C3)[C@@]21C
REMARK SMILES IDX 5 1 6 2 7 3 8 4 9 5 10 6 11 7 12 8 13 9 14 10 15 11 16 12
REMARK SMILES IDX 17 13 18 14 19 15 20 16 21 17 22 18 23 19 24 20 25 21 32 22
REMARK SMILES IDX 33 23 4 24 2 25 1 26 3 27 26 28 27 29 31 30 28 31 29 32
REMARK SMILES IDX 30 33
REMARK H PARENT
ROOT
ATOM      1  C   UNL     1       1.515  -1.488   0.000  1.00  0.00     0.187 C 
ATOM      2  C   UNL     1       2.935  -1.006   0.000  1.00  0.00     0.051 C 
ATOM      3  C   UNL     1       3.229   0.465   0.000  1.00  0.00     0.016 C 
ATOM      4  C   UNL     1       4.649   0.946   0.000  1.00  0.00     0.031 C 
ATOM      5  C   UNL     1       6.149   0.913   0.000  1.00  0.00     0.020 C 
ATOM      6  C   UNL     1       4.877  -0.537   0.000  1.00  0.00     0.020 C 
ATOM      7  C   UNL     1       4.943   2.417   0.000  1.00  0.00     0.161 C 
ATOM      8  O   UNL     1       6.364   2.898   0.000  1.00  0.00    -0.294 OA
ATOM      9  C   UNL     1       3.816   3.407   0.000  1.00  0.00     0.044 C 
ATOM     10  C   UNL     1       2.395   2.925   0.000  1.00  0.00    -0.016 C 
ATOM     11  C   UNL     1       2.102   1.454   0.000  1.00  0.00    -0.007 C 
ATOM     12  C   UNL     1       0.974   2.444   0.000  1.00  0.00     0.016 C 
ATOM     13  C   UNL     1       0.681   0.973   0.000  1.00  0.00     0.013 C 
ATOM     14  C   UNL     1      -0.446   1.962   0.000  1.00  0.00     0.006 C 
ATOM     15  C   UNL     1      -1.867   1.481   0.000  1.00  0.00     0.012 C 
ATOM     16  C   UNL     1      -2.160   0.010   0.000  1.00  0.00    -0.007 C 
ATOM     17  C   UNL     1      -3.385   0.876   0.000  1.00  0.00     0.016 C 
ATOM     18  C   UNL     1      -1.033  -0.980   0.000  1.00  0.00    -0.058 C 
ATOM     19  C   UNL     1      -1.626  -2.357   0.000  1.00  0.00    -0.026 C 
ATOM     20  C   UNL     1      -3.120  -2.219   0.000  1.00  0.00     0.032 C 
ATOM     21  C   UNL     1      -3.450  -0.756   0.000  1.00  0.00     0.010 C 
ATOM     22  C   UNL     1       0.388  -0.498   0.000  1.00  0.00     0.030 C 
ATOM     23  C   UNL     1       0.094  -1.969   0.000  1.00  0.00     0.020 C 
ENDROOT
BRANCH   1  24
ATOM     24  O   UNL     1       1.221  -2.959   0.000  1.00  0.00    -0.462 OA
BRANCH  24  25
ATOM     25  C   UNL     1       2.349  -3.948   0.000  1.00  0.00     0.302 C 
ATOM     26  C   UNL     1       2.055  -5.419   0.000  1.00  0.00     0.139 C 
ATOM     27  O   UNL     1       3.769  -3.467   0.000  1.00  0.00    -0.253 OA
ENDBRANCH  24  25
ENDBRANCH   1  24
BRANCH  21  28
ATOM     28  C   UNL     1      -4.828  -0.163   0.000  1.00  0.00     0.042 C 
ATOM     29  C   UNL     1      -6.117  -0.930   0.000  1.00  0.00     0.237 C 
ATOM     30  C   UNL     1      -5.158   1.300   0.000  1.00  0.00     0.130 C 
ATOM     31  O   UNL     1      -7.245   0.060   0.000  1.00  0.00    -0.465 OA
ATOM     32  C   UNL     1      -6.652   1.438   0.000  1.00  0.00     0.306 C 
ATOM     33  O   UNL     1      -7.418   2.727   0.000  1.00  0.00    -0.252 OA
ENDBRANCH  21  28
TORSDOF 3
