REMARK SMILES Cn1c(=O)c2c(c3cccc(O)c31)OC(C)(C)C=C2
REMARK SMILES IDX 1 1 2 2 3 3 4 4 5 5 6 6 14 7 15 8 16 9 17 10 18 11 19 12
REMARK SMILES IDX 7 13 8 14 9 15 10 16 11 17 13 18 12 19
REMARK H PARENT 12 20
ROOT
ATOM      1  C   UNL     1      -2.856   2.382   0.000  1.00  0.00     0.154 C 
ATOM      2  N   UNL     1      -1.653   1.486   0.000  1.00  0.00    -0.307 N 
ATOM      3  C   UNL     1      -0.275   2.080   0.000  1.00  0.00     0.261 A 
ATOM      4  O   UNL     1      -0.101   3.570   0.000  1.00  0.00    -0.269 OA
ATOM      5  C   UNL     1       0.928   1.184   0.000  1.00  0.00     0.082 A 
ATOM      6  C   UNL     1       0.754  -0.305   0.000  1.00  0.00     0.142 A 
ATOM      7  O   UNL     1       1.957  -1.201   0.000  1.00  0.00    -0.482 OA
ATOM      8  C   UNL     1       3.334  -0.607   0.000  1.00  0.00     0.122 C 
ATOM      9  C   UNL     1       4.832  -0.520   0.000  1.00  0.00     0.061 C 
ATOM     10  C   UNL     1       3.680  -2.067   0.000  1.00  0.00     0.061 C 
ATOM     11  C   UNL     1       3.508   0.883   0.000  1.00  0.00     0.021 C 
ATOM     12  C   UNL     1       2.305   1.778   0.000  1.00  0.00     0.017 C 
ATOM     13  C   UNL     1      -0.624  -0.899   0.000  1.00  0.00     0.045 A 
ATOM     14  C   UNL     1      -0.798  -2.389   0.000  1.00  0.00     0.014 A 
ATOM     15  C   UNL     1      -2.175  -2.983   0.000  1.00  0.00     0.005 A 
ATOM     16  C   UNL     1      -3.378  -2.088   0.000  1.00  0.00     0.048 A 
ATOM     17  C   UNL     1      -3.204  -0.598   0.000  1.00  0.00     0.140 A 
ATOM     18  C   UNL     1      -1.827  -0.004   0.000  1.00  0.00     0.097 A 
ENDROOT
BRANCH  17  19
ATOM     19  O   UNL     1      -4.407   0.298   0.000  1.00  0.00    -0.506 OA
ATOM     20  H   UNL     1       0.000   0.000   0.000  1.00  0.00     0.293 HD
ENDBRANCH  17  19
TORSDOF 1
