REMARK SMILES CC(C)c1c(O)ccc2c1CC[C@H]1[C@@](C)(C(=O)O)CCC[C@]21C
REMARK SMILES IDX 4 1 5 2 7 3 8 4 9 5 10 6 11 7 12 8 13 9 14 10 15 11 19 12
REMARK SMILES IDX 20 13 21 14 22 15 23 16 2 17 1 18 3 19 6 20 16 22 17 23
REMARK SMILES IDX 18 24
REMARK H PARENT 6 21 18 25
ROOT
ATOM      1  C   UNL     1      -2.778  -0.329   0.000  1.00  0.00    -0.000 A 
ATOM      2  C   UNL     1      -3.574   0.942   0.000  1.00  0.00     0.119 A 
ATOM      3  C   UNL     1      -2.871   2.267   0.000  1.00  0.00     0.047 A 
ATOM      4  C   UNL     1      -1.372   2.321   0.000  1.00  0.00     0.008 A 
ATOM      5  C   UNL     1      -0.576   1.050   0.000  1.00  0.00    -0.038 A 
ATOM      6  C   UNL     1      -1.279  -0.275   0.000  1.00  0.00    -0.037 A 
ATOM      7  C   UNL     1      -0.482  -1.546   0.000  1.00  0.00     0.036 C 
ATOM      8  C   UNL     1       1.017  -1.493   0.000  1.00  0.00     0.010 C 
ATOM      9  C   UNL     1       1.719  -0.167   0.000  1.00  0.00     0.017 C 
ATOM     10  C   UNL     1       3.218  -0.114   0.000  1.00  0.00     0.069 C 
ATOM     11  C   UNL     1       4.646  -0.576   0.000  1.00  0.00     0.024 C 
ATOM     12  C   UNL     1       3.921   1.212   0.000  1.00  0.00     0.019 C 
ATOM     13  C   UNL     1       3.125   2.483   0.000  1.00  0.00     0.002 C 
ATOM     14  C   UNL     1       1.626   2.429   0.000  1.00  0.00     0.012 C 
ATOM     15  C   UNL     1       0.923   1.104   0.000  1.00  0.00    -0.003 C 
ATOM     16  C   UNL     1       0.127   2.375   0.000  1.00  0.00     0.017 C 
ENDROOT
BRANCH   1  17
ATOM     17  C   UNL     1      -3.481  -1.654   0.000  1.00  0.00     0.017 C 
ATOM     18  C   UNL     1      -4.979  -1.708   0.000  1.00  0.00     0.012 C 
ATOM     19  C   UNL     1      -2.684  -2.926   0.000  1.00  0.00     0.012 C 
ENDBRANCH   1  17
BRANCH   2  20
ATOM     20  O   UNL     1      -5.073   0.888   0.000  1.00  0.00    -0.508 OA
ATOM     21  H   UNL     1       0.000   0.000   0.000  1.00  0.00     0.293 HD
ENDBRANCH   2  20
BRANCH  10  22
ATOM     22  C   UNL     1       3.011  -1.599   0.000  1.00  0.00     0.309 C 
ATOM     23  O   UNL     1       1.621  -2.163   0.000  1.00  0.00    -0.252 OA
BRANCH  22  24
ATOM     24  O   UNL     1       4.194  -2.521   0.000  1.00  0.00    -0.481 OA
ATOM     25  H   UNL     1       0.000   0.000   0.000  1.00  0.00     0.296 HD
ENDBRANCH  22  24
ENDBRANCH  10  22
TORSDOF 4
