REMARK SMILES COc1ccc([C@H]2OC[C@H]3[C@@H]2CO[C@@H]3c2ccc3c(c2)OCO3)cc1OC
REMARK SMILES IDX 3 1 4 2 5 3 6 4 24 5 25 6 2 7 1 8 26 9 27 10 7 11 8 12 11 13
REMARK SMILES IDX 9 14 10 15 12 16 14 17 13 18 15 19 16 20 20 21 17 22 19 23
REMARK SMILES IDX 18 24 21 25 23 26 22 27
REMARK H PARENT
ROOT
ATOM      1  C   UNL     1       6.024  -0.130   0.000  1.00  0.00     0.160 A 
ATOM      2  C   UNL     1       5.542  -1.551   0.000  1.00  0.00     0.051 A 
ATOM      3  C   UNL     1       4.071  -1.844   0.000  1.00  0.00     0.010 A 
ATOM      4  C   UNL     1       3.082  -0.717   0.000  1.00  0.00    -0.015 A 
ATOM      5  C   UNL     1       3.563   0.704   0.000  1.00  0.00     0.056 A 
ATOM      6  C   UNL     1       5.034   0.997   0.000  1.00  0.00     0.161 A 
ENDROOT
BRANCH   1   7
ATOM      7  O   UNL     1       7.495   0.164   0.000  1.00  0.00    -0.493 OA
ATOM      8  C   UNL     1       8.484  -0.964   0.000  1.00  0.00     0.278 C 
ENDBRANCH   1   7
BRANCH   6   9
ATOM      9  O   UNL     1       5.516   2.418   0.000  1.00  0.00    -0.493 OA
ATOM     10  C   UNL     1       4.526   3.545   0.000  1.00  0.00     0.278 C 
ENDBRANCH   6   9
BRANCH   4  11
ATOM     11  C   UNL     1       1.611  -1.010   0.000  1.00  0.00     0.154 C 
ATOM     12  O   UNL     1       0.983  -2.373   0.000  1.00  0.00    -0.373 OA
ATOM     13  C   UNL     1       0.509   0.008   0.000  1.00  0.00     0.057 C 
ATOM     14  C   UNL     1      -0.506  -2.197   0.000  1.00  0.00     0.168 C 
ATOM     15  C   UNL     1      -0.800  -0.726   0.000  1.00  0.00     0.057 C 
ATOM     16  C   UNL     1       0.215   1.479   0.000  1.00  0.00     0.168 C 
ATOM     17  C   UNL     1      -1.902   0.292   0.000  1.00  0.00     0.154 C 
ATOM     18  O   UNL     1      -1.274   1.654   0.000  1.00  0.00    -0.373 OA
BRANCH  17  19
ATOM     19  C   UNL     1      -3.373  -0.002   0.000  1.00  0.00    -0.015 A 
ATOM     20  C   UNL     1      -3.854  -1.422   0.000  1.00  0.00     0.010 A 
ATOM     21  C   UNL     1      -4.362   1.125   0.000  1.00  0.00     0.057 A 
ATOM     22  C   UNL     1      -5.325  -1.716   0.000  1.00  0.00     0.051 A 
ATOM     23  C   UNL     1      -5.833   0.832   0.000  1.00  0.00     0.166 A 
ATOM     24  C   UNL     1      -6.315  -0.589   0.000  1.00  0.00     0.165 A 
ATOM     25  O   UNL     1      -7.036   1.729   0.000  1.00  0.00    -0.454 OA
ATOM     26  O   UNL     1      -7.815  -0.570   0.000  1.00  0.00    -0.454 OA
ATOM     27  C   UNL     1      -8.260   0.863   0.000  1.00  0.00     0.468 C 
ENDBRANCH  17  19
ENDBRANCH   4  11
TORSDOF 4
