REMARK SMILES C=CC(C)(C)c1cc2ccc3c(c2oc1=O)C[C@H](O)C(C)(C)O3
REMARK SMILES IDX 6 1 7 2 8 3 9 4 10 5 11 6 23 7 20 8 21 9 22 10 18 11 17 12
REMARK SMILES IDX 12 13 13 14 14 15 15 16 16 17 3 18 4 19 5 20 2 21 1 22 19 23
REMARK H PARENT 19 24
ROOT
ATOM      1  C   UNL     1       2.868  -0.148   0.000  1.00  0.00     0.048 A 
ATOM      2  C   UNL     1       2.077  -1.422   0.000  1.00  0.00     0.024 A 
ATOM      3  C   UNL     1       0.578  -1.375   0.000  1.00  0.00     0.018 A 
ATOM      4  C   UNL     1      -0.213  -2.649   0.000  1.00  0.00     0.016 A 
ATOM      5  C   UNL     1      -1.712  -2.601   0.000  1.00  0.00     0.047 A 
ATOM      6  C   UNL     1      -2.420  -1.279   0.000  1.00  0.00     0.127 A 
ATOM      7  O   UNL     1      -3.920  -1.231   0.000  1.00  0.00    -0.485 OA
ATOM      8  C   UNL     1      -4.628   0.091   0.000  1.00  0.00     0.129 C 
ATOM      9  C   UNL     1      -5.746   1.091   0.000  1.00  0.00     0.059 C 
ATOM     10  C   UNL     1      -5.807  -0.836   0.000  1.00  0.00     0.059 C 
ATOM     11  C   UNL     1      -3.837   1.365   0.000  1.00  0.00     0.162 C 
ATOM     12  C   UNL     1      -2.338   1.318   0.000  1.00  0.00     0.079 C 
ATOM     13  C   UNL     1      -1.629  -0.005   0.000  1.00  0.00     0.040 A 
ATOM     14  C   UNL     1      -0.130  -0.052   0.000  1.00  0.00     0.145 A 
ATOM     15  O   UNL     1       0.661   1.222   0.000  1.00  0.00    -0.422 OA
ATOM     16  C   UNL     1       2.160   1.174   0.000  1.00  0.00     0.340 A 
ATOM     17  O   UNL     1       2.951   2.449   0.000  1.00  0.00    -0.246 OA
ENDROOT
BRANCH   1  18
ATOM     18  C   UNL     1       4.368  -0.196   0.000  1.00  0.00     0.014 C 
ATOM     19  C   UNL     1       4.320  -1.695   0.000  1.00  0.00     0.021 C 
ATOM     20  C   UNL     1       4.415   1.304   0.000  1.00  0.00     0.021 C 
BRANCH  18  21
ATOM     21  C   UNL     1       5.867  -0.243   0.000  1.00  0.00    -0.024 C 
ATOM     22  C   UNL     1       6.658   1.031   0.000  1.00  0.00     0.005 C 
ENDBRANCH  18  21
ENDBRANCH   1  18
BRANCH  11  23
ATOM     23  O   UNL     1      -4.545   2.688   0.000  1.00  0.00    -0.389 OA
ATOM     24  H   UNL     1       0.000   0.000   0.000  1.00  0.00     0.211 HD
ENDBRANCH  11  23
TORSDOF 3
