REMARK SMILES C=C[C@@]1(C)CCC2=C(C1)C(=O)C[C@H]1C(C)(C)CCC[C@]21C
REMARK SMILES IDX 3 1 4 2 5 3 6 4 7 5 8 6 9 7 10 8 11 9 12 10 13 11 14 12
REMARK SMILES IDX 15 13 16 14 17 15 18 16 19 17 20 18 21 19 2 20 1 21
REMARK H PARENT
ROOT
ATOM      1  C   UNL     1      -3.357  -0.235   0.000  1.00  0.00    -0.010 C 
ATOM      2  C   UNL     1      -4.279  -1.418   0.000  1.00  0.00     0.016 C 
ATOM      3  C   UNL     1      -2.896   1.193   0.000  1.00  0.00     0.015 C 
ATOM      4  C   UNL     1      -1.429   1.507   0.000  1.00  0.00     0.033 C 
ATOM      5  C   UNL     1      -0.423   0.394   0.000  1.00  0.00    -0.057 C 
ATOM      6  C   UNL     1      -0.885  -1.034   0.000  1.00  0.00    -0.004 C 
ATOM      7  C   UNL     1      -2.351  -1.348   0.000  1.00  0.00     0.050 C 
ATOM      8  C   UNL     1       0.121  -2.147   0.000  1.00  0.00     0.159 C 
ATOM      9  O   UNL     1      -0.341  -3.574   0.000  1.00  0.00    -0.295 OA
ATOM     10  C   UNL     1       1.587  -1.833   0.000  1.00  0.00     0.085 C 
ATOM     11  C   UNL     1       2.049  -0.406   0.000  1.00  0.00     0.012 C 
ATOM     12  C   UNL     1       3.516  -0.091   0.000  1.00  0.00    -0.031 C 
ATOM     13  C   UNL     1       5.001  -0.298   0.000  1.00  0.00     0.011 C 
ATOM     14  C   UNL     1       3.570  -1.591   0.000  1.00  0.00     0.011 C 
ATOM     15  C   UNL     1       3.977   1.336   0.000  1.00  0.00     0.007 C 
ATOM     16  C   UNL     1       2.971   2.449   0.000  1.00  0.00     0.001 C 
ATOM     17  C   UNL     1       1.505   2.135   0.000  1.00  0.00     0.011 C 
ATOM     18  C   UNL     1       1.043   0.708   0.000  1.00  0.00    -0.007 C 
ATOM     19  C   UNL     1       0.038   1.821   0.000  1.00  0.00     0.016 C 
ENDROOT
BRANCH   1  20
ATOM     20  C   UNL     1      -4.682   0.468   0.000  1.00  0.00    -0.028 C 
ATOM     21  C   UNL     1      -4.737   1.966   0.000  1.00  0.00     0.004 C 
ENDBRANCH   1  20
TORSDOF 1
