REMARK SMILES COC(=O)C=C[C@]1(C)[C@H]2CC[C@@]3(C)[C@H](c4ccoc4)OC(=O)[C@H]4O[C@]43[C@]2(C)C(OC(C)=O)C(=O)[C@]12OC2(C)C
REMARK SMILES IDX 6 1 5 2 3 3 4 4 2 5 1 6 7 7 9 8 35 9 10 10 26 11 33 12 36 13
REMARK SMILES IDX 37 14 11 15 25 16 28 17 12 18 24 19 23 20 14 21 21 22 20 23
REMARK SMILES IDX 8 24 27 25 34 26 38 27 39 28 13 29 22 30 29 31 30 32 31 33
REMARK SMILES IDX 32 34 15 35 19 36 16 37 18 38 17 39
REMARK H PARENT
ROOT
ATOM      1  C   UNL     1      -1.892   1.797   0.000  1.00  0.00    -0.009 C 
ENDROOT
BRANCH   1   2
ATOM      2  C   UNL     1      -3.016   2.791   0.000  1.00  0.00     0.090 C 
BRANCH   2   3
ATOM      3  C   UNL     1      -2.717   4.261   0.000  1.00  0.00     0.330 C 
ATOM      4  O   UNL     1      -1.294   4.737   0.000  1.00  0.00    -0.247 OA
BRANCH   3   5
ATOM      5  O   UNL     1      -3.840   5.255   0.000  1.00  0.00    -0.466 OA
ATOM      6  C   UNL     1      -3.541   6.725   0.000  1.00  0.00     0.282 C 
ENDBRANCH   3   5
ENDBRANCH   2   3
ENDBRANCH   1   2
BRANCH   1   7
ATOM      7  C   UNL     1      -2.191   0.327   0.000  1.00  0.00     0.029 C 
ATOM      8  C   UNL     1      -0.692   0.288   0.000  1.00  0.00     0.015 C 
ATOM      9  C   UNL     1      -2.975  -0.952   0.000  1.00  0.00     0.168 C 
ATOM     10  C   UNL     1       0.092   1.567   0.000  1.00  0.00     0.006 C 
ATOM     11  C   UNL     1       0.024  -1.031   0.000  1.00  0.00     0.049 C 
ATOM     12  C   UNL     1      -2.260  -2.270   0.000  1.00  0.00     0.209 C 
ATOM     13  O   UNL     1      -4.293  -1.668   0.000  1.00  0.00    -0.354 OA
ATOM     14  C   UNL     1      -4.254  -0.168   0.000  1.00  0.00     0.101 C 
ATOM     15  C   UNL     1       1.591   1.527   0.000  1.00  0.00     0.014 C 
ATOM     16  C   UNL     1       1.523  -1.070   0.000  1.00  0.00     0.125 C 
ATOM     17  C   UNL     1      -0.760  -2.309   0.000  1.00  0.00     0.255 C 
ATOM     18  C   UNL     1       2.307   0.209   0.000  1.00  0.00     0.042 C 
ATOM     19  O   UNL     1       0.740  -2.349   0.000  1.00  0.00    -0.352 OA
ATOM     20  C   UNL     1       2.239  -2.388   0.000  1.00  0.00     0.262 C 
ATOM     21  C   UNL     1       3.807   0.170   0.000  1.00  0.00     0.219 C 
ATOM     22  C   UNL     1       3.738  -2.427   0.000  1.00  0.00     0.339 C 
ATOM     23  O   UNL     1       4.522  -1.149   0.000  1.00  0.00    -0.455 OA
ATOM     24  C   UNL     1      -3.152   0.849   0.000  1.00  0.00     0.020 C 
ATOM     25  C   UNL     1      -1.476  -0.991   0.000  1.00  0.00     0.019 C 
ATOM     26  O   UNL     1      -3.043  -3.549   0.000  1.00  0.00    -0.292 OA
ATOM     27  C   UNL     1      -5.724   0.131   0.000  1.00  0.00     0.046 C 
ATOM     28  C   UNL     1      -3.980   0.890   0.000  1.00  0.00     0.046 C 
ATOM     29  C   UNL     1       3.091   1.488   0.000  1.00  0.00     0.019 C 
ATOM     30  O   UNL     1       4.454  -3.746   0.000  1.00  0.00    -0.249 OA
BRANCH  17  31
ATOM     31  O   UNL     1      -0.044  -3.628   0.000  1.00  0.00    -0.454 OA
BRANCH  31  32
ATOM     32  C   UNL     1      -0.828  -4.907   0.000  1.00  0.00     0.303 C 
ATOM     33  C   UNL     1      -0.112  -6.225   0.000  1.00  0.00     0.139 C 
ATOM     34  O   UNL     1      -2.328  -4.867   0.000  1.00  0.00    -0.253 OA
ENDBRANCH  31  32
ENDBRANCH  17  31
BRANCH  21  35
ATOM     35  C   UNL     1       4.590   1.449   0.000  1.00  0.00     0.031 A 
ATOM     36  C   UNL     1       4.016   2.834   0.000  1.00  0.00     0.202 A 
ATOM     37  C   UNL     1       6.086   1.566   0.000  1.00  0.00     0.049 A 
ATOM     38  O   UNL     1       5.157   3.809   0.000  1.00  0.00    -0.472 OA
ATOM     39  C   UNL     1       6.436   3.025   0.000  1.00  0.00     0.195 A 
ENDBRANCH  21  35
ENDBRANCH   1   7
TORSDOF 7
