REMARK SMILES C[C@@H]1CC[C@@H]2[C@@H]1[C@H]1[C@@H](CC[C@@]2(C)O)C1(C)C
REMARK SMILES IDX 1 1 2 2 3 3 4 4 5 5 6 6 7 7 8 8 14 9 15 10 16 11 9 12 11 14
REMARK SMILES IDX 12 15 10 16 13 18
REMARK H PARENT 13 19
REMARK Flexibility Score:    5.900
ROOT
ATOM      1  C   UNL     1      -1.093  -3.285   0.000  1.00  0.00     0.008 C 
ATOM      2  C   UNL     1       0.076  -2.345   0.000  1.00  0.00    -0.010 C 
ATOM      3  C   UNL     1       1.524  -2.738   0.000  1.00  0.00     0.004 C 
ATOM      4  C   UNL     1       2.345  -1.483   0.000  1.00  0.00     0.007 C 
ATOM      5  C   UNL     1       1.404  -0.314   0.000  1.00  0.00     0.024 C 
ATOM      6  C   UNL     1       0.002  -0.847   0.000  1.00  0.00     0.002 C 
ENDROOT
BRANCH   6   7
ATOM      7  C   UNL     1      -1.289  -0.083   0.000  1.00  0.00     0.002 C 
ATOM      8  C   UNL     1      -1.496   1.402   0.000  1.00  0.00    -0.001 C 
ATOM      9  C   UNL     1      -2.679   0.480   0.000  1.00  0.00    -0.029 C 
ATOM     10  C   UNL     1      -3.793   1.484   0.000  1.00  0.00     0.011 C 
ATOM     11  C   UNL     1      -3.475  -0.792   0.000  1.00  0.00     0.011 C 
BRANCH   8  12
ATOM     12  C   UNL     1      -0.464   2.491   0.000  1.00  0.00     0.007 CG0
ATOM     13  G   UNL     1       1.030   2.363   0.000  1.00  0.00     0.000 G0
ENDBRANCH   8  12
ENDBRANCH   6   7
BRANCH   5  14
ATOM     14  C   UNL     1       1.862   1.115   0.000  1.00  0.00     0.065 C 
ATOM     15  C   UNL     1       2.894   2.203   0.000  1.00  0.00     0.042 C 
BRANCH  14  16
ATOM     16  C   UNL     1       1.030   2.363   0.000  1.00  0.00     0.035 CG0
ATOM     17  G   UNL     1      -0.464   2.491   0.000  1.00  0.00     0.000 G0
ENDBRANCH  14  16
BRANCH  14  18
ATOM     18  O   UNL     1       3.153   0.351   0.000  1.00  0.00    -0.390 OA
ATOM     19  H   UNL     1       0.000   0.000   0.000  1.00  0.00     0.211 HD
ENDBRANCH  14  18
ENDBRANCH   5  14
TORSDOF 1
