REMARK SMILES C/C=C(\C)C(=O)O[C@@H]1C[C@H](O)[C@]23CO[C@](O)(C(=O)OC)[C@H]2[C@](C)([C@]24O[C@@]2(C)[C@H]2C[C@@H]4O[C@@H]4OC=C[C@@]42O)[C@H](O)[C@@H]2OC[C@@]1(C(=O)OC)[C@H]23
REMARK SMILES IDX 7 1 5 2 6 3 3 4 4 5 2 6 1 7 8 8 9 9 43 10 10 11 42 12 48 13
REMARK SMILES IDX 12 14 41 15 40 16 13 17 21 18 38 19 14 20 15 21 22 22 23 23
REMARK SMILES IDX 44 24 45 25 46 26 47 27 11 28 39 30 16 32 17 34 18 35 19 36
REMARK SMILES IDX 20 37 24 38 25 39 26 40 30 41 28 42 29 43 31 44 36 45 32 46
REMARK SMILES IDX 35 47 33 48 34 49 27 50 37 51
REMARK H PARENT 11 29 39 31 16 33 37 52
ROOT
ATOM      1  O   UNL     1       5.290  -0.056   0.000  1.00  0.00    -0.458 OA
ENDROOT
BRANCH   1   2
ATOM      2  C   UNL     1       6.010  -1.371   0.000  1.00  0.00     0.333 C 
ATOM      3  O   UNL     1       5.230  -2.653   0.000  1.00  0.00    -0.247 OA
BRANCH   2   4
ATOM      4  C   UNL     1       7.509  -1.406   0.000  1.00  0.00     0.030 C 
ATOM      5  C   UNL     1       8.289  -0.125   0.000  1.00  0.00     0.052 C 
BRANCH   4   6
ATOM      6  C   UNL     1       8.229  -2.722   0.000  1.00  0.00    -0.020 C 
ATOM      7  C   UNL     1       9.729  -2.756   0.000  1.00  0.00     0.036 C 
ENDBRANCH   4   6
ENDBRANCH   2   4
ENDBRANCH   1   2
BRANCH   1   8
ATOM      8  C   UNL     1       3.090  -0.005   0.000  1.00  0.00     0.199 C 
ATOM      9  C   UNL     1       2.674  -0.689   0.000  1.00  0.00     0.079 C 
ATOM     10  C   UNL     1       3.070   1.295   0.000  1.00  0.00     0.134 C 
ATOM     11  C   UNL     1       1.875  -0.670   0.000  1.00  0.00     0.127 C 
ATOM     12  C   UNL     1       3.269   2.843   0.000  1.00  0.00     0.183 C 
ATOM     13  C   UNL     1       1.570   1.329   0.000  1.00  0.00     0.056 C 
ATOM     14  C   UNL     1       0.791   0.048   0.000  1.00  0.00     0.036 C 
ATOM     15  O   UNL     1       1.988   3.623   0.000  1.00  0.00    -0.374 OA
ATOM     16  C   UNL     1       0.851   2.645   0.000  1.00  0.00     0.152 C 
ATOM     17  C   UNL     1       1.221  -1.389   0.000  1.00  0.00     0.175 C 
ATOM     18  C   UNL     1      -0.709   0.082   0.000  1.00  0.00     0.084 C 
ATOM     19  C   UNL     1      -0.649   2.680   0.000  1.00  0.00     0.153 C 
ATOM     20  O   UNL     1      -0.012  -2.243   0.000  1.00  0.00    -0.340 OA
ATOM     21  C   UNL     1      -1.205  -1.333   0.000  1.00  0.00     0.271 C 
ATOM     22  C   UNL     1      -1.429   1.398   0.000  1.00  0.00     0.040 C 
ATOM     23  C   UNL     1      -2.555   2.389   0.000  1.00  0.00     0.018 C 
BRANCH  10  24
ATOM     24  C   UNL     1       3.850   2.576   0.000  1.00  0.00     0.318 C 
ATOM     25  O   UNL     1       3.130   3.892   0.000  1.00  0.00    -0.251 OA
BRANCH  24  26
ATOM     26  O   UNL     1       5.349   2.542   0.000  1.00  0.00    -0.468 OA
ATOM     27  C   UNL     1       6.129   3.823   0.000  1.00  0.00     0.282 C 
ENDBRANCH  24  26
ENDBRANCH  10  24
BRANCH  11  28
ATOM     28  O   UNL     1       1.064  -2.700   0.000  1.00  0.00    -0.392 OA
ATOM     29  H   UNL     1       0.000   0.000   0.000  1.00  0.00     0.210 HD
ENDBRANCH  11  28
BRANCH  19  30
ATOM     30  O   UNL     1      -1.369   3.996   0.000  1.00  0.00    -0.390 OA
ATOM     31  H   UNL     1       0.000   0.000   0.000  1.00  0.00     0.211 HD
ENDBRANCH  19  30
BRANCH  21  32
ATOM     32  O   UNL     1      -2.703  -1.404   0.000  1.00  0.00    -0.356 OA
ATOM     33  H   UNL     1       0.000   0.000   0.000  1.00  0.00     0.214 HD
ENDBRANCH  21  32
BRANCH  21  34
ATOM     34  C   UNL     1      -1.985  -2.615   0.000  1.00  0.00     0.366 C 
ATOM     35  O   UNL     1      -3.477  -2.763   0.000  1.00  0.00    -0.246 OA
BRANCH  34  36
ATOM     36  O   UNL     1      -1.265  -3.931   0.000  1.00  0.00    -0.465 OA
ATOM     37  C   UNL     1      -2.044  -5.212   0.000  1.00  0.00     0.282 C 
ENDBRANCH  34  36
ENDBRANCH  21  34
BRANCH  22  38
ATOM     38  C   UNL     1      -2.600   0.461   0.000  1.00  0.00     0.133 C 
ATOM     39  O   UNL     1      -1.790  -0.802   0.000  1.00  0.00    -0.359 OA
ATOM     40  C   UNL     1      -3.288  -0.872   0.000  1.00  0.00     0.105 C 
ATOM     41  C   UNL     1      -3.655   1.527   0.000  1.00  0.00     0.159 C 
ATOM     42  C   UNL     1      -4.847  -0.781   0.000  1.00  0.00     0.069 C 
ATOM     43  C   UNL     1      -3.584   0.029   0.000  1.00  0.00     0.045 C 
ATOM     44  O   UNL     1      -4.987   2.216   0.000  1.00  0.00    -0.334 OA
ATOM     45  C   UNL     1      -6.179  -0.093   0.000  1.00  0.00     0.154 C 
ATOM     46  C   UNL     1      -6.250   1.406   0.000  1.00  0.00     0.343 C 
ATOM     47  C   UNL     1      -7.583  -0.623   0.000  1.00  0.00     0.053 C 
ATOM     48  O   UNL     1      -7.697   1.802   0.000  1.00  0.00    -0.469 OA
ATOM     49  C   UNL     1      -8.520   0.548   0.000  1.00  0.00     0.189 C 
ATOM     50  C   UNL     1      -3.557  -2.348   0.000  1.00  0.00     0.046 C 
BRANCH  45  51
ATOM     51  O   UNL     1      -6.266  -1.590   0.000  1.00  0.00    -0.379 OA
ATOM     52  H   UNL     1       0.000   0.000   0.000  1.00  0.00     0.212 HD
ENDBRANCH  45  51
ENDBRANCH  22  38
ENDBRANCH   1   8
TORSDOF 13
