REMARK SMILES CC1=CC2=C(C=O)C(=O)[C@](C)(O)[C@@H](O)C2=CO1
REMARK SMILES IDX 1 1 2 2 3 3 4 4 5 5 8 6 9 7 10 8 11 9 13 10 15 11 16 12
REMARK SMILES IDX 17 13 6 14 7 15 14 16 12 18
REMARK H PARENT 14 17 12 19
ROOT
ATOM      1  C   UNL     1       4.683  -1.024   0.000  1.00  0.00     0.087 C 
ATOM      2  C   UNL     1       3.348  -0.340   0.000  1.00  0.00     0.101 C 
ATOM      3  C   UNL     1       2.088  -1.155   0.000  1.00  0.00     0.051 C 
ATOM      4  C   UNL     1       0.753  -0.471   0.000  1.00  0.00     0.001 C 
ATOM      5  C   UNL     1      -0.506  -1.286   0.000  1.00  0.00     0.068 C 
ATOM      6  C   UNL     1      -1.842  -0.602   0.000  1.00  0.00     0.200 C 
ATOM      7  O   UNL     1      -3.101  -1.417   0.000  1.00  0.00    -0.291 OA
ATOM      8  C   UNL     1      -1.917   0.896   0.000  1.00  0.00     0.155 C 
ATOM      9  C   UNL     1      -2.501   2.277   0.000  1.00  0.00     0.054 C 
ATOM     10  C   UNL     1      -0.658   1.710   0.000  1.00  0.00     0.187 C 
ATOM     11  C   UNL     1       0.677   1.027   0.000  1.00  0.00     0.027 C 
ATOM     12  C   UNL     1       1.937   1.841   0.000  1.00  0.00     0.202 C 
ATOM     13  O   UNL     1       3.272   1.158   0.000  1.00  0.00    -0.469 OA
ENDROOT
BRANCH   5  14
ATOM     14  C   UNL     1      -0.431  -2.784   0.000  1.00  0.00     0.264 C 
ATOM     15  O   UNL     1      -1.690  -3.599   0.000  1.00  0.00    -0.298 OA
ENDBRANCH   5  14
BRANCH  10  16
ATOM     16  O   UNL     1      -0.733   3.208   0.000  1.00  0.00    -0.385 OA
ATOM     17  H   UNL     1       0.000   0.000   0.000  1.00  0.00     0.211 HD
ENDBRANCH  10  16
BRANCH   8  18
ATOM     18  O   UNL     1      -3.380   0.561   0.000  1.00  0.00    -0.379 OA
ATOM     19  H   UNL     1       0.000   0.000   0.000  1.00  0.00     0.212 HD
ENDBRANCH   8  18
TORSDOF 3
