REMARK SMILES CCCCCCCCCCCCCCCCCCCCCCCCOC(=O)C=Cc1ccc(O)c(OC)c1
REMARK SMILES IDX 16 1 15 2 14 3 13 4 12 5 11 6 10 7 9 8 8 9 7 10 6 11 5 12
REMARK SMILES IDX 4 13 3 14 2 15 1 16 17 17 18 18 19 19 20 20 21 21 22 22
REMARK SMILES IDX 23 23 24 24 25 25 26 26 27 27 28 28 29 29 30 30 31 31 38 32
REMARK SMILES IDX 32 33 35 34 33 35 36 36 37 37 34 38
REMARK H PARENT 34 39
ROOT
ATOM      1  C   UNL     1      -3.425  -0.468   0.000  1.00  0.00     0.000 C 
ENDROOT
BRANCH   1   2
ATOM      2  C   UNL     1      -4.714   0.299   0.000  1.00  0.00     0.000 C 
BRANCH   2   3
ATOM      3  C   UNL     1      -6.023  -0.434   0.000  1.00  0.00     0.000 C 
BRANCH   3   4
ATOM      4  C   UNL     1      -7.312   0.333   0.000  1.00  0.00     0.000 C 
BRANCH   4   5
ATOM      5  C   UNL     1      -8.621  -0.399   0.000  1.00  0.00     0.000 C 
BRANCH   5   6
ATOM      6  C   UNL     1      -9.910   0.368   0.000  1.00  0.00     0.000 C 
BRANCH   6   7
ATOM      7  C   UNL     1     -11.219  -0.365   0.000  1.00  0.00     0.000 C 
BRANCH   7   8
ATOM      8  C   UNL     1     -12.508   0.402   0.000  1.00  0.00    -0.000 C 
BRANCH   8   9
ATOM      9  C   UNL     1     -13.816  -0.331   0.000  1.00  0.00    -0.000 C 
BRANCH   9  10
ATOM     10  C   UNL     1     -15.105   0.436   0.000  1.00  0.00    -0.000 C 
BRANCH  10  11
ATOM     11  C   UNL     1     -16.414  -0.297   0.000  1.00  0.00    -0.000 C 
BRANCH  11  12
ATOM     12  C   UNL     1     -17.703   0.470   0.000  1.00  0.00    -0.000 C 
BRANCH  12  13
ATOM     13  C   UNL     1     -19.012  -0.262   0.000  1.00  0.00    -0.000 C 
BRANCH  13  14
ATOM     14  C   UNL     1     -20.301   0.505   0.000  1.00  0.00    -0.000 C 
BRANCH  14  15
ATOM     15  C   UNL     1     -21.610  -0.228   0.000  1.00  0.00    -0.003 C 
ATOM     16  C   UNL     1     -22.899   0.539   0.000  1.00  0.00     0.004 C 
ENDBRANCH  14  15
ENDBRANCH  13  14
ENDBRANCH  12  13
ENDBRANCH  11  12
ENDBRANCH  10  11
ENDBRANCH   9  10
ENDBRANCH   8   9
ENDBRANCH   7   8
ENDBRANCH   6   7
ENDBRANCH   5   6
ENDBRANCH   4   5
ENDBRANCH   3   4
ENDBRANCH   2   3
ENDBRANCH   1   2
BRANCH   1  17
ATOM     17  C   UNL     1      -2.116   0.265   0.000  1.00  0.00     0.000 C 
BRANCH  17  18
ATOM     18  C   UNL     1      -0.827  -0.502   0.000  1.00  0.00     0.000 C 
BRANCH  18  19
ATOM     19  C   UNL     1       0.482   0.231   0.000  1.00  0.00     0.000 C 
BRANCH  19  20
ATOM     20  C   UNL     1       1.771  -0.537   0.000  1.00  0.00     0.000 C 
BRANCH  20  21
ATOM     21  C   UNL     1       3.079   0.196   0.000  1.00  0.00     0.000 C 
BRANCH  21  22
ATOM     22  C   UNL     1       4.369  -0.571   0.000  1.00  0.00     0.003 C 
BRANCH  22  23
ATOM     23  C   UNL     1       5.677   0.162   0.000  1.00  0.00     0.042 C 
BRANCH  23  24
ATOM     24  C   UNL     1       6.966  -0.605   0.000  1.00  0.00     0.233 C 
BRANCH  24  25
ATOM     25  O   UNL     1       8.275   0.128   0.000  1.00  0.00    -0.463 OA
BRANCH  25  26
ATOM     26  C   UNL     1       9.564  -0.639   0.000  1.00  0.00     0.330 C 
ATOM     27  O   UNL     1       9.544  -2.139   0.000  1.00  0.00    -0.247 OA
BRANCH  26  28
ATOM     28  C   UNL     1      10.873   0.093   0.000  1.00  0.00     0.094 C 
BRANCH  28  29
ATOM     29  C   UNL     1      12.162  -0.674   0.000  1.00  0.00     0.016 C 
BRANCH  29  30
ATOM     30  C   UNL     1      13.471   0.059   0.000  1.00  0.00    -0.021 A 
ATOM     31  C   UNL     1      13.491   1.559   0.000  1.00  0.00     0.012 A 
ATOM     32  C   UNL     1      14.760  -0.708   0.000  1.00  0.00     0.058 A 
ATOM     33  C   UNL     1      14.800   2.292   0.000  1.00  0.00     0.051 A 
ATOM     34  C   UNL     1      16.069   0.025   0.000  1.00  0.00     0.161 A 
ATOM     35  C   UNL     1      16.089   1.525   0.000  1.00  0.00     0.157 A 
BRANCH  34  36
ATOM     36  O   UNL     1      17.358  -0.742   0.000  1.00  0.00    -0.493 OA
ATOM     37  C   UNL     1      17.338  -2.242   0.000  1.00  0.00     0.278 C 
ENDBRANCH  34  36
BRANCH  35  38
ATOM     38  O   UNL     1      17.397   2.257   0.000  1.00  0.00    -0.504 OA
ATOM     39  H   UNL     1       0.000   0.000   0.000  1.00  0.00     0.293 HD
ENDBRANCH  35  38
ENDBRANCH  29  30
ENDBRANCH  28  29
ENDBRANCH  26  28
ENDBRANCH  25  26
ENDBRANCH  24  25
ENDBRANCH  23  24
ENDBRANCH  22  23
ENDBRANCH  21  22
ENDBRANCH  20  21
ENDBRANCH  19  20
ENDBRANCH  18  19
ENDBRANCH  17  18
ENDBRANCH   1  17
TORSDOF 29
