REMARK SMILES C[C@]12[C@H](c3ccoc3)C[C@H]3O[C@]31[C@](C)(O)C1[C@H](O[C@H]3CC(=O)[C@]4(C)OC(=O)[C@H](O)[C@]4(O)[C@@]13C)[C@@H]2O
REMARK SMILES IDX 1 1 2 2 3 3 9 4 10 5 11 6 12 7 13 8 14 9 16 10 17 11 18 12
REMARK SMILES IDX 19 13 20 14 21 15 22 16 23 17 24 18 25 19 26 20 27 21 28 22
REMARK SMILES IDX 30 23 32 24 33 25 34 26 4 27 8 28 5 29 7 30 6 31 35 32 15 34
REMARK SMILES IDX 31 36 29 38
REMARK H PARENT 35 33 15 35 31 37 29 39
ROOT
ATOM      1  C   UNL     1       3.694   0.807   0.000  1.00  0.00     0.018 C 
ATOM      2  C   UNL     1       2.662  -0.281   0.000  1.00  0.00     0.038 C 
ATOM      3  C   UNL     1       4.077  -0.781   0.000  1.00  0.00     0.037 C 
ATOM      4  C   UNL     1       4.039  -2.280   0.000  1.00  0.00     0.044 C 
ATOM      5  C   UNL     1       2.601  -2.708   0.000  1.00  0.00     0.155 C 
ATOM      6  O   UNL     1       1.106  -2.827   0.000  1.00  0.00    -0.362 OA
ATOM      7  C   UNL     1       1.750  -1.472   0.000  1.00  0.00     0.132 C 
ATOM      8  C   UNL     1       0.263  -1.278   0.000  1.00  0.00     0.100 C 
ATOM      9  C   UNL     1      -1.201  -1.604   0.000  1.00  0.00     0.046 C 
ATOM     10  C   UNL     1      -0.312   0.107   0.000  1.00  0.00     0.067 C 
ATOM     11  C   UNL     1       0.600   1.298   0.000  1.00  0.00     0.154 C 
ATOM     12  O   UNL     1      -0.251   2.534   0.000  1.00  0.00    -0.371 OA
ATOM     13  C   UNL     1      -1.689   2.106   0.000  1.00  0.00     0.135 C 
ATOM     14  C   UNL     1      -2.969   2.889   0.000  1.00  0.00     0.113 C 
ATOM     15  C   UNL     1      -4.286   2.172   0.000  1.00  0.00     0.181 C 
ATOM     16  O   UNL     1      -5.566   2.954   0.000  1.00  0.00    -0.295 OA
ATOM     17  C   UNL     1      -4.324   0.672   0.000  1.00  0.00     0.199 C 
ATOM     18  C   UNL     1      -5.679   1.317   0.000  1.00  0.00     0.069 C 
ATOM     19  O   UNL     1      -5.464  -0.303   0.000  1.00  0.00    -0.446 OA
ATOM     20  C   UNL     1      -4.889  -1.688   0.000  1.00  0.00     0.339 C 
ATOM     21  O   UNL     1      -5.671  -2.968   0.000  1.00  0.00    -0.249 OA
ATOM     22  C   UNL     1      -3.393  -1.569   0.000  1.00  0.00     0.261 C 
ATOM     23  C   UNL     1      -3.045  -0.110   0.000  1.00  0.00     0.156 C 
ATOM     24  C   UNL     1      -1.727   0.607   0.000  1.00  0.00     0.039 C 
ATOM     25  C   UNL     1      -1.608  -0.888   0.000  1.00  0.00     0.018 C 
ATOM     26  C   UNL     1       2.087   1.104   0.000  1.00  0.00     0.153 C 
ENDROOT
BRANCH   3  27
ATOM     27  C   UNL     1       5.312   0.070   0.000  1.00  0.00    -0.006 A 
ATOM     28  C   UNL     1       5.350   1.569   0.000  1.00  0.00     0.198 A 
ATOM     29  C   UNL     1       6.726  -0.429   0.000  1.00  0.00     0.046 A 
ATOM     30  O   UNL     1       6.788   1.997   0.000  1.00  0.00    -0.472 OA
ATOM     31  C   UNL     1       7.638   0.761   0.000  1.00  0.00     0.195 A 
ENDBRANCH   3  27
BRANCH  26  32
ATOM     32  O   UNL     1       2.999   2.295   0.000  1.00  0.00    -0.390 OA
ATOM     33  H   UNL     1       0.000   0.000   0.000  1.00  0.00     0.211 HD
ENDBRANCH  26  32
BRANCH   8  34
ATOM     34  O   UNL     1      -0.035  -2.748   0.000  1.00  0.00    -0.387 OA
ATOM     35  H   UNL     1       0.000   0.000   0.000  1.00  0.00     0.211 HD
ENDBRANCH   8  34
BRANCH  23  36
ATOM     36  O   UNL     1      -3.164   1.385   0.000  1.00  0.00    -0.381 OA
ATOM     37  H   UNL     1       0.000   0.000   0.000  1.00  0.00     0.211 HD
ENDBRANCH  23  36
BRANCH  22  38
ATOM     38  O   UNL     1      -2.418  -2.709   0.000  1.00  0.00    -0.379 OA
ATOM     39  H   UNL     1       0.000   0.000   0.000  1.00  0.00     0.211 HD
ENDBRANCH  22  38
TORSDOF 5
