REMARK SMILES C/C=C(\C)C(=O)O[C@@H]1[C@@H]2C=C3[C@@H]4CC(=O)O[C@@H](c5ccoc5)[C@]4(C)CC[C@@H]3[C@@](C)(C2=O)[C@@H](CC(=O)OC)C1(C)C
REMARK SMILES IDX 8 1 9 2 10 3 11 4 12 5 13 6 14 7 15 8 16 9 17 10 23 11 24 12
REMARK SMILES IDX 25 13 26 14 27 15 28 16 29 17 30 18 31 19 32 20 38 21 39 22
REMARK SMILES IDX 40 23 7 24 5 25 6 26 3 27 4 28 2 29 1 30 33 31 34 32 35 33
REMARK SMILES IDX 36 34 37 35 18 36 22 37 19 38 21 39 20 40
REMARK H PARENT
ROOT
ATOM      1  C   UNL     1       3.307  -0.254   0.000  1.00  0.00     0.197 C 
ATOM      2  C   UNL     1       2.060   0.580   0.000  1.00  0.00     0.121 C 
ATOM      3  C   UNL     1       0.814   1.413   0.000  1.00  0.00    -0.012 C 
ATOM      4  C   UNL     1      -0.532   0.751   0.000  1.00  0.00    -0.065 C 
ATOM      5  C   UNL     1      -1.779   1.585   0.000  1.00  0.00     0.036 C 
ATOM      6  C   UNL     1      -1.680   3.081   0.000  1.00  0.00     0.131 C 
ATOM      7  C   UNL     1      -2.927   3.915   0.000  1.00  0.00     0.307 C 
ATOM      8  O   UNL     1      -2.828   5.412   0.000  1.00  0.00    -0.252 OA
ATOM      9  O   UNL     1      -4.273   3.252   0.000  1.00  0.00    -0.457 OA
ATOM     10  C   UNL     1      -4.371   1.756   0.000  1.00  0.00     0.216 C 
ATOM     11  C   UNL     1      -3.124   0.922   0.000  1.00  0.00     0.016 C 
ATOM     12  C   UNL     1      -4.470   0.259   0.000  1.00  0.00     0.016 C 
ATOM     13  C   UNL     1      -3.223  -0.575   0.000  1.00  0.00     0.012 C 
ATOM     14  C   UNL     1      -1.976  -1.409   0.000  1.00  0.00     0.010 C 
ATOM     15  C   UNL     1      -0.631  -0.746   0.000  1.00  0.00     0.029 C 
ATOM     16  C   UNL     1       0.616  -1.580   0.000  1.00  0.00     0.037 C 
ATOM     17  C   UNL     1       0.517  -3.077   0.000  1.00  0.00     0.021 C 
ATOM     18  C   UNL     1       1.962  -0.917   0.000  1.00  0.00     0.150 C 
ATOM     19  O   UNL     1       2.712  -1.187   0.000  1.00  0.00    -0.298 OA
ATOM     20  C   UNL     1       1.863  -2.414   0.000  1.00  0.00     0.023 C 
ATOM     21  C   UNL     1       3.208  -1.751   0.000  1.00  0.00     0.007 C 
ATOM     22  C   UNL     1       3.628  -3.191   0.000  1.00  0.00     0.015 C 
ATOM     23  C   UNL     1       4.700  -1.588   0.000  1.00  0.00     0.015 C 
ENDROOT
BRANCH   1  24
ATOM     24  O   UNL     1       4.653   0.408   0.000  1.00  0.00    -0.457 OA
BRANCH  24  25
ATOM     25  C   UNL     1       4.752   1.905   0.000  1.00  0.00     0.333 C 
ATOM     26  O   UNL     1       3.505   2.739   0.000  1.00  0.00    -0.247 OA
BRANCH  25  27
ATOM     27  C   UNL     1       6.097   2.568   0.000  1.00  0.00     0.030 C 
ATOM     28  C   UNL     1       7.344   1.734   0.000  1.00  0.00     0.052 C 
BRANCH  27  29
ATOM     29  C   UNL     1       6.196   4.065   0.000  1.00  0.00    -0.020 C 
ATOM     30  C   UNL     1       7.542   4.728   0.000  1.00  0.00     0.036 C 
ENDBRANCH  27  29
ENDBRANCH  25  27
ENDBRANCH  24  25
ENDBRANCH   1  24
BRANCH  20  31
ATOM     31  C   UNL     1       1.764  -3.911   0.000  1.00  0.00     0.128 C 
BRANCH  31  32
ATOM     32  C   UNL     1       0.418  -4.574   0.000  1.00  0.00     0.305 C 
ATOM     33  O   UNL     1      -0.828  -3.740   0.000  1.00  0.00    -0.252 OA
BRANCH  32  34
ATOM     34  O   UNL     1       0.320  -6.070   0.000  1.00  0.00    -0.469 OA
ATOM     35  C   UNL     1      -1.026  -6.733   0.000  1.00  0.00     0.282 C 
ENDBRANCH  32  34
ENDBRANCH  31  32
ENDBRANCH  20  31
BRANCH  10  36
ATOM     36  C   UNL     1      -5.717   1.093   0.000  1.00  0.00     0.031 A 
ATOM     37  C   UNL     1      -5.972  -0.386   0.000  1.00  0.00     0.202 A 
ATOM     38  C   UNL     1      -7.044   1.792   0.000  1.00  0.00     0.049 A 
ATOM     39  O   UNL     1      -7.456  -0.600   0.000  1.00  0.00    -0.472 OA
ATOM     40  C   UNL     1      -8.119   0.746   0.000  1.00  0.00     0.195 A 
ENDBRANCH  10  36
TORSDOF 8
