REMARK SMILES COC(=O)C[C@H]1[C@]2(C)C3=C(C)[C@H](c4ccoc4)CC3O[C@@H]2[C@H](O)C2C(C)=CCC(=O)[C@@]21C
REMARK SMILES IDX 5 1 3 2 4 3 2 4 1 5 6 6 7 7 31 8 9 9 21 10 29 11 24 12 10 13
REMARK SMILES IDX 19 14 20 15 22 16 28 17 25 18 12 19 18 20 27 21 8 22 32 23
REMARK SMILES IDX 30 24 11 25 26 26 23 27 13 29 17 30 14 31 16 32 15 33
REMARK H PARENT 23 28
ROOT
ATOM      1  C   UNL     1       0.866   2.009   0.000  1.00  0.00     0.128 C 
ENDROOT
BRANCH   1   2
ATOM      2  C   UNL     1      -0.627   2.147   0.000  1.00  0.00     0.305 C 
ATOM      3  O   UNL     1      -1.494   0.923   0.000  1.00  0.00    -0.252 OA
BRANCH   2   4
ATOM      4  O   UNL     1      -1.254   3.510   0.000  1.00  0.00    -0.469 OA
ATOM      5  C   UNL     1      -2.748   3.649   0.000  1.00  0.00     0.282 C 
ENDBRANCH   2   4
ENDBRANCH   1   2
BRANCH   1   6
ATOM      6  C   UNL     1       1.493   0.646   0.000  1.00  0.00     0.027 C 
ATOM      7  C   UNL     1       0.626  -0.578   0.000  1.00  0.00     0.024 C 
ATOM      8  C   UNL     1       2.986   0.507   0.000  1.00  0.00     0.040 C 
ATOM      9  C   UNL     1      -0.864  -0.753   0.000  1.00  0.00    -0.033 C 
ATOM     10  C   UNL     1       1.253  -1.941   0.000  1.00  0.00     0.158 C 
ATOM     11  C   UNL     1       3.853   1.732   0.000  1.00  0.00     0.143 C 
ATOM     12  C   UNL     1       3.613  -0.855   0.000  1.00  0.00     0.059 C 
ATOM     13  C   UNL     1      -2.172  -0.019   0.000  1.00  0.00    -0.063 C 
ATOM     14  C   UNL     1      -1.158  -2.224   0.000  1.00  0.00     0.146 C 
ATOM     15  O   UNL     1       0.150  -2.958   0.000  1.00  0.00    -0.367 OA
ATOM     16  C   UNL     1       2.746  -2.079   0.000  1.00  0.00     0.152 C 
ATOM     17  C   UNL     1       5.347   1.593   0.000  1.00  0.00     0.103 C 
ATOM     18  C   UNL     1       5.107  -0.994   0.000  1.00  0.00    -0.070 C 
ATOM     19  C   UNL     1      -3.274  -1.036   0.000  1.00  0.00     0.051 C 
ATOM     20  C   UNL     1      -2.647  -2.399   0.000  1.00  0.00     0.049 C 
ATOM     21  C   UNL     1       5.974   0.230   0.000  1.00  0.00    -0.020 C 
ATOM     22  C   UNL     1      -0.140   0.712   0.000  1.00  0.00     0.019 C 
ATOM     23  C   UNL     1       2.360   1.870   0.000  1.00  0.00     0.021 C 
ATOM     24  O   UNL     1       3.227   3.095   0.000  1.00  0.00    -0.299 OA
ATOM     25  C   UNL     1      -2.347   1.471   0.000  1.00  0.00     0.040 C 
ATOM     26  C   UNL     1       5.734  -2.357   0.000  1.00  0.00     0.039 C 
BRANCH  16  27
ATOM     27  O   UNL     1       3.373  -3.442   0.000  1.00  0.00    -0.390 OA
ATOM     28  H   UNL     1       0.000   0.000   0.000  1.00  0.00     0.211 HD
ENDBRANCH  16  27
BRANCH  19  29
ATOM     29  C   UNL     1      -4.745  -0.742   0.000  1.00  0.00    -0.002 A 
ATOM     30  C   UNL     1      -5.848  -1.759   0.000  1.00  0.00     0.199 A 
ATOM     31  C   UNL     1      -5.372   0.621   0.000  1.00  0.00     0.046 A 
ATOM     32  O   UNL     1      -7.156  -1.025   0.000  1.00  0.00    -0.472 OA
ATOM     33  C   UNL     1      -6.862   0.446   0.000  1.00  0.00     0.195 A 
ENDBRANCH  19  29
ENDBRANCH   1   6
TORSDOF 5
