REMARK SMILES C[C@@H]1CC[C@]2(C)CC[C@]3(C)C(=CCC4[C@@]5(C)CC[C@H](OC(=O)Cc6ccccc6)C(C)(C)C5CC[C@]43C)C2[C@H]1C
REMARK SMILES IDX 20 1 19 2 2 3 3 4 39 5 4 6 38 7 5 8 11 9 7 10 9 11 12 12
REMARK SMILES IDX 8 13 36 14 13 15 35 16 14 17 34 18 15 19 33 20 17 21 30 22
REMARK SMILES IDX 18 23 1 24 40 25 6 26 10 27 37 28 16 29 31 30 32 31 21 32
REMARK SMILES IDX 22 33 23 34 24 35 25 36 29 37 26 38 28 39 27 40
REMARK H PARENT
ROOT
ATOM      1  O   UNL     1       4.785   1.422   0.000  1.00  0.00    -0.462 OA
ENDROOT
BRANCH   1   2
ATOM      2  C   UNL     1       3.319   1.103   0.000  1.00  0.00     0.182 C 
ATOM      3  C   UNL     1      -7.398  -2.558   0.000  1.00  0.00    -0.011 C 
ATOM      4  C   UNL     1      -8.407  -1.448   0.000  1.00  0.00     0.004 C 
ATOM      5  C   UNL     1      -5.932  -2.239   0.000  1.00  0.00    -0.004 C 
ATOM      6  C   UNL     1      -7.950  -0.019   0.000  1.00  0.00     0.007 C 
ATOM      7  C   UNL     1      -5.475  -0.810   0.000  1.00  0.00     0.024 C 
ATOM      8  C   UNL     1      -6.484   0.300   0.000  1.00  0.00    -0.026 C 
ATOM      9  C   UNL     1      -4.010  -0.491   0.000  1.00  0.00    -0.064 C 
ATOM     10  C   UNL     1      -6.028   1.729   0.000  1.00  0.00     0.008 C 
ATOM     11  C   UNL     1      -3.553   0.938   0.000  1.00  0.00    -0.006 C 
ATOM     12  C   UNL     1      -3.001  -1.601   0.000  1.00  0.00    -0.027 C 
ATOM     13  C   UNL     1      -4.562   2.047   0.000  1.00  0.00     0.012 C 
ATOM     14  C   UNL     1      -2.087   1.256   0.000  1.00  0.00    -0.020 C 
ATOM     15  C   UNL     1      -1.535  -1.282   0.000  1.00  0.00     0.032 C 
ATOM     16  C   UNL     1      -1.631   2.685   0.000  1.00  0.00     0.008 C 
ATOM     17  C   UNL     1      -1.078   0.147   0.000  1.00  0.00     0.006 C 
ATOM     18  C   UNL     1      -0.165   3.004   0.000  1.00  0.00     0.005 C 
ATOM     19  C   UNL     1       0.387   0.465   0.000  1.00  0.00    -0.025 C 
ATOM     20  C   UNL     1       0.844   1.894   0.000  1.00  0.00     0.005 C 
ATOM     21  C   UNL     1       1.396  -0.644   0.000  1.00  0.00     0.011 C 
ATOM     22  C   UNL     1       2.310   2.213   0.000  1.00  0.00     0.005 C 
ATOM     23  C   UNL     1       2.862  -0.326   0.000  1.00  0.00     0.046 C 
ATOM     24  C   UNL     1      -7.854  -3.986   0.000  1.00  0.00     0.008 C 
ATOM     25  C   UNL     1      -4.923  -3.349   0.000  1.00  0.00     0.008 C 
ATOM     26  C   UNL     1      -7.493   1.410   0.000  1.00  0.00     0.012 C 
ATOM     27  C   UNL     1      -2.544  -0.172   0.000  1.00  0.00     0.017 C 
ATOM     28  C   UNL     1      -3.096   2.366   0.000  1.00  0.00     0.012 C 
ATOM     29  C   UNL     1      -0.069  -0.963   0.000  1.00  0.00     0.012 C 
ATOM     30  C   UNL     1       1.741   3.601   0.000  1.00  0.00     0.015 C 
ATOM     31  C   UNL     1       3.578   3.014   0.000  1.00  0.00     0.015 C 
ENDBRANCH   1   2
BRANCH   1  32
ATOM     32  C   UNL     1       5.794   0.312   0.000  1.00  0.00     0.310 C 
ATOM     33  O   UNL     1       5.337  -1.117   0.000  1.00  0.00    -0.252 OA
BRANCH  32  34
ATOM     34  C   UNL     1       7.259   0.631   0.000  1.00  0.00     0.158 C 
BRANCH  34  35
ATOM     35  C   UNL     1       8.268  -0.479   0.000  1.00  0.00    -0.037 A 
ATOM     36  C   UNL     1       7.812  -1.908   0.000  1.00  0.00     0.004 A 
ATOM     37  C   UNL     1       9.734  -0.160   0.000  1.00  0.00     0.004 A 
ATOM     38  C   UNL     1       8.821  -3.018   0.000  1.00  0.00     0.000 A 
ATOM     39  C   UNL     1      10.743  -1.270   0.000  1.00  0.00     0.000 A 
ATOM     40  C   UNL     1      10.286  -2.699   0.000  1.00  0.00     0.000 A 
ENDBRANCH  34  35
ENDBRANCH  32  34
ENDBRANCH   1  32
TORSDOF 4
