REMARK SMILES CCc1c(C)ccc2c1[C@@H](O)C[C@H]1C(C)(C)C(=O)CC[C@]21C
REMARK SMILES IDX 3 1 4 2 5 3 6 4 7 5 8 6 9 7 10 8 12 9 13 10 14 11 15 12
REMARK SMILES IDX 16 13 17 14 18 15 19 16 20 17 21 18 22 19 2 20 1 21 11 22
REMARK H PARENT 11 23
ROOT
ATOM      1  C   UNL     1      -2.877  -0.287   0.000  1.00  0.00    -0.039 A 
ATOM      2  C   UNL     1      -3.529   1.064   0.000  1.00  0.00    -0.048 A 
ATOM      3  C   UNL     1      -5.024   1.175   0.000  1.00  0.00     0.044 C 
ATOM      4  C   UNL     1      -2.684   2.304   0.000  1.00  0.00     0.004 A 
ATOM      5  C   UNL     1      -1.188   2.192   0.000  1.00  0.00     0.005 A 
ATOM      6  C   UNL     1      -0.537   0.841   0.000  1.00  0.00    -0.036 A 
ATOM      7  C   UNL     1      -1.381  -0.399   0.000  1.00  0.00    -0.012 A 
ATOM      8  C   UNL     1      -0.730  -1.750   0.000  1.00  0.00     0.145 C 
ATOM      9  C   UNL     1       0.766  -1.861   0.000  1.00  0.00     0.042 C 
ATOM     10  C   UNL     1       1.611  -0.621   0.000  1.00  0.00     0.015 C 
ATOM     11  C   UNL     1       3.107  -0.732   0.000  1.00  0.00     0.027 C 
ATOM     12  C   UNL     1       4.474  -1.349   0.000  1.00  0.00     0.020 C 
ATOM     13  C   UNL     1       2.737  -2.186   0.000  1.00  0.00     0.020 C 
ATOM     14  C   UNL     1       3.951   0.507   0.000  1.00  0.00     0.138 C 
ATOM     15  O   UNL     1       5.447   0.396   0.000  1.00  0.00    -0.299 OA
ATOM     16  C   UNL     1       3.299   1.859   0.000  1.00  0.00     0.077 C 
ATOM     17  C   UNL     1       1.803   1.970   0.000  1.00  0.00     0.019 C 
ATOM     18  C   UNL     1       0.959   0.730   0.000  1.00  0.00    -0.003 C 
ATOM     19  C   UNL     1       0.307   2.081   0.000  1.00  0.00     0.017 C 
ENDROOT
BRANCH   1  20
ATOM     20  C   UNL     1      -3.721  -1.527   0.000  1.00  0.00     0.033 C 
ATOM     21  C   UNL     1      -5.217  -1.416   0.000  1.00  0.00     0.009 C 
ENDBRANCH   1  20
BRANCH   8  22
ATOM     22  O   UNL     1      -1.574  -2.990   0.000  1.00  0.00    -0.388 OA
ATOM     23  H   UNL     1       0.000   0.000   0.000  1.00  0.00     0.211 HD
ENDBRANCH   8  22
TORSDOF 2
