REMARK SMILES COc1cccc2c1N(C(C)=O)C13CCCC4(CC1)C(OC)CCN1CCC23[C@@H]14
REMARK SMILES IDX 3 1 4 2 5 3 6 4 7 5 8 6 9 7 13 8 17 9 18 10 19 11 20 12
REMARK SMILES IDX 23 13 24 14 25 15 26 16 27 17 28 18 29 19 2 20 1 21 10 22
REMARK SMILES IDX 11 23 12 24 14 25 15 26 16 28 21 30 22 31
REMARK H PARENT
REMARK Flexibility Score:    3.900
ROOT
ATOM      1  C   UNL     1       3.526  -0.939   0.000  1.00  0.00     0.142 A 
ATOM      2  C   UNL     1       3.465  -2.438   0.000  1.00  0.00     0.049 A 
ATOM      3  C   UNL     1       2.136  -3.134   0.000  1.00  0.00     0.004 A 
ATOM      4  C   UNL     1       0.869  -2.332   0.000  1.00  0.00     0.007 A 
ATOM      5  C   UNL     1       0.930  -0.833   0.000  1.00  0.00    -0.010 A 
ATOM      6  C   UNL     1       2.259  -0.137   0.000  1.00  0.00     0.090 A 
ATOM      7  N   UNL     1       2.007   1.342   0.000  1.00  0.00    -0.302 N 
ATOM      8  C   UNL     1       0.523   1.560   0.000  1.00  0.00     0.059 C 
ATOM      9  C   UNL     1      -2.771   0.845   0.000  1.00  0.00     0.013 C 
ATOM     10  C   UNL     1      -2.106   2.190   0.000  1.00  0.00     0.014 C 
ATOM     11  C   UNL     1      -0.640   2.507   0.000  1.00  0.00     0.031 C 
ATOM     12  C   UNL     1      -4.140   0.231   0.000  1.00  0.00     0.126 C 
ATOM     13  C   UNL     1      -4.335  -1.257   0.000  1.00  0.00     0.048 C 
ATOM     14  C   UNL     1      -3.145  -2.169   0.000  1.00  0.00     0.087 C 
ATOM     15  N   UNL     1      -1.760  -1.595   0.000  1.00  0.00    -0.299 NA
ATOM     16  C   UNL     1      -0.894  -0.626   0.000  1.00  0.00     0.086 C 
ATOM     17  C   UNL     1      -1.008  -0.754   0.000  1.00  0.00     0.031 C 
ATOM     18  C   UNL     1      -0.143   0.215   0.000  1.00  0.00     0.039 C 
ATOM     19  C   UNL     1      -1.609  -0.102   0.000  1.00  0.00     0.078 C 
ENDROOT
BRANCH   1  20
ATOM     20  O   UNL     1       4.854  -0.243   0.000  1.00  0.00    -0.495 OA
ATOM     21  C   UNL     1       6.122  -1.045   0.000  1.00  0.00     0.278 C 
ENDBRANCH   1  20
BRANCH   7  22
ATOM     22  C   UNL     1       3.055   2.415   0.000  1.00  0.00     0.224 C 
ATOM     23  C   UNL     1       2.650   3.859   0.000  1.00  0.00     0.115 C 
ATOM     24  O   UNL     1       4.508   2.043   0.000  1.00  0.00    -0.275 OA
ENDBRANCH   7  22
BRANCH   8  25
ATOM     25  C   UNL     1       0.506   0.060   0.000  1.00  0.00     0.030 C 
BRANCH  25  26
ATOM     26  C   UNL     1      -0.677  -0.863   0.000  1.00  0.00     0.003 CG0
ATOM     27  G   UNL     1      -2.135  -0.513   0.000  1.00  0.00     0.000 G0
ENDBRANCH  25  26
ENDBRANCH   8  25
BRANCH   9  28
ATOM     28  C   UNL     1      -2.135  -0.513   0.000  1.00  0.00     0.011 CG0
ATOM     29  G   UNL     1      -0.677  -0.863   0.000  1.00  0.00     0.000 G0
ENDBRANCH   9  28
BRANCH  12  30
ATOM     30  O   UNL     1      -5.330   1.143   0.000  1.00  0.00    -0.381 OA
ATOM     31  C   UNL     1      -6.716   0.569   0.000  1.00  0.00     0.195 C 
ENDBRANCH  12  30
TORSDOF 3
