REMARK SMILES COc1cc(OC(C)=O)c2c(=O)c(OC)c(-c3ccc(OC)c(OC(C)=O)c3OC(C)=O)oc2c1
REMARK SMILES IDX 3 1 4 2 5 3 10 4 11 5 12 6 13 7 16 8 33 9 34 10 35 11 2 12
REMARK SMILES IDX 1 13 6 14 7 15 8 16 9 17 17 18 18 19 28 20 19 21 23 22 20 23
REMARK SMILES IDX 29 24 30 25 31 26 32 27 24 28 25 29 26 30 27 31 21 32 22 33
REMARK SMILES IDX 14 34 15 35
REMARK H PARENT
ROOT
ATOM      1  C   UNL     1      -4.187  -2.324   0.000  1.00  0.00     0.126 A 
ATOM      2  C   UNL     1      -5.073  -1.114   0.000  1.00  0.00     0.094 A 
ATOM      3  C   UNL     1      -4.469   0.259   0.000  1.00  0.00     0.149 A 
ATOM      4  C   UNL     1      -2.978   0.422   0.000  1.00  0.00     0.112 A 
ATOM      5  C   UNL     1      -2.373   1.794   0.000  1.00  0.00     0.239 A 
ATOM      6  O   UNL     1      -3.260   3.004   0.000  1.00  0.00    -0.285 OA
ATOM      7  C   UNL     1      -0.882   1.957   0.000  1.00  0.00     0.211 A 
ATOM      8  C   UNL     1       0.005   0.747   0.000  1.00  0.00     0.184 A 
ATOM      9  O   UNL     1      -0.600  -0.625   0.000  1.00  0.00    -0.451 OA
ATOM     10  C   UNL     1      -2.091  -0.788   0.000  1.00  0.00     0.146 A 
ATOM     11  C   UNL     1      -2.696  -2.161   0.000  1.00  0.00     0.094 A 
ENDROOT
BRANCH   1  12
ATOM     12  O   UNL     1      -4.792  -3.697   0.000  1.00  0.00    -0.496 OA
ATOM     13  C   UNL     1      -6.283  -3.859   0.000  1.00  0.00     0.278 C 
ENDBRANCH   1  12
BRANCH   3  14
ATOM     14  O   UNL     1      -5.355   1.469   0.000  1.00  0.00    -0.426 OA
BRANCH  14  15
ATOM     15  C   UNL     1      -6.846   1.306   0.000  1.00  0.00     0.308 C 
ATOM     16  C   UNL     1      -7.733   2.516   0.000  1.00  0.00     0.139 C 
ATOM     17  O   UNL     1      -7.451  -0.067   0.000  1.00  0.00    -0.252 OA
ENDBRANCH  14  15
ENDBRANCH   3  14
BRANCH   8  18
ATOM     18  C   UNL     1       1.496   0.910   0.000  1.00  0.00     0.068 A 
ATOM     19  C   UNL     1       2.100   2.283   0.000  1.00  0.00     0.020 A 
ATOM     20  C   UNL     1       2.382  -0.300   0.000  1.00  0.00     0.188 A 
ATOM     21  C   UNL     1       3.592   2.446   0.000  1.00  0.00     0.051 A 
ATOM     22  C   UNL     1       3.873  -0.137   0.000  1.00  0.00     0.215 A 
ATOM     23  C   UNL     1       4.478   1.236   0.000  1.00  0.00     0.165 A 
BRANCH  20  24
ATOM     24  O   UNL     1       1.778  -1.673   0.000  1.00  0.00    -0.422 OA
BRANCH  24  25
ATOM     25  C   UNL     1       2.664  -2.883   0.000  1.00  0.00     0.308 C 
ATOM     26  C   UNL     1       2.060  -4.255   0.000  1.00  0.00     0.139 C 
ATOM     27  O   UNL     1       4.155  -2.720   0.000  1.00  0.00    -0.252 OA
ENDBRANCH  24  25
ENDBRANCH  20  24
BRANCH  22  28
ATOM     28  O   UNL     1       4.760  -1.347   0.000  1.00  0.00    -0.419 OA
BRANCH  28  29
ATOM     29  C   UNL     1       6.251  -1.184   0.000  1.00  0.00     0.308 C 
ATOM     30  C   UNL     1       7.138  -2.394   0.000  1.00  0.00     0.139 C 
ATOM     31  O   UNL     1       6.856   0.188   0.000  1.00  0.00    -0.252 OA
ENDBRANCH  28  29
ENDBRANCH  22  28
BRANCH  23  32
ATOM     32  O   UNL     1       5.969   1.398   0.000  1.00  0.00    -0.493 OA
ATOM     33  C   UNL     1       6.574   2.771   0.000  1.00  0.00     0.278 C 
ENDBRANCH  23  32
ENDBRANCH   8  18
BRANCH   7  34
ATOM     34  O   UNL     1      -0.277   3.330   0.000  1.00  0.00    -0.490 OA
ATOM     35  C   UNL     1       1.214   3.493   0.000  1.00  0.00     0.278 C 
ENDBRANCH   7  34
TORSDOF 10
