REMARK SMILES CC(=O)OC1C[C@H]2C(C)(C)O[C@H]3CC(=O)OC[C@]32[C@H]2CC[C@@]3(C)[C@H](c4ccoc4)OC(=O)[C@H]4O[C@]43[C@]12C
REMARK SMILES IDX 4 1 2 2 1 3 3 4 5 5 6 6 36 7 7 8 35 9 19 10 8 11 18 12 34 13
REMARK SMILES IDX 22 14 33 15 20 16 11 17 17 18 12 19 21 20 24 21 31 22 16 23
REMARK SMILES IDX 13 24 30 25 14 26 37 27 9 28 10 29 23 30 32 31 15 32 25 33
REMARK SMILES IDX 29 34 26 35 28 36 27 37
REMARK H PARENT
ROOT
ATOM      1  O   UNL     1      -1.436  -3.041   0.000  1.00  0.00    -0.462 OA
ENDROOT
BRANCH   1   2
ATOM      2  C   UNL     1      -2.596  -3.992   0.000  1.00  0.00     0.302 C 
ATOM      3  C   UNL     1      -2.353  -5.472   0.000  1.00  0.00     0.139 C 
ATOM      4  O   UNL     1      -4.000  -3.463   0.000  1.00  0.00    -0.253 OA
ENDBRANCH   1   2
BRANCH   1   5
ATOM      5  C   UNL     1      -1.680  -1.561   0.000  1.00  0.00     0.186 C 
ATOM      6  C   UNL     1      -3.083  -1.032   0.000  1.00  0.00     0.053 C 
ATOM      7  C   UNL     1      -0.520  -0.610   0.000  1.00  0.00     0.041 C 
ATOM      8  C   UNL     1      -3.327   0.449   0.000  1.00  0.00     0.037 C 
ATOM      9  C   UNL     1       0.884  -1.139   0.000  1.00  0.00     0.125 C 
ATOM     10  C   UNL     1      -0.763   0.870   0.000  1.00  0.00     0.014 C 
ATOM     11  C   UNL     1      -4.590   1.258   0.000  1.00  0.00     0.067 C 
ATOM     12  C   UNL     1      -2.167   1.399   0.000  1.00  0.00     0.041 C 
ATOM     13  O   UNL     1      -0.276  -2.090   0.000  1.00  0.00    -0.352 OA
ATOM     14  C   UNL     1       2.044  -0.188   0.000  1.00  0.00     0.042 C 
ATOM     15  C   UNL     1       1.127  -2.619   0.000  1.00  0.00     0.262 C 
ATOM     16  C   UNL     1       0.397   1.821   0.000  1.00  0.00     0.006 C 
ATOM     17  O   UNL     1      -4.210   2.709   0.000  1.00  0.00    -0.371 OA
ATOM     18  C   UNL     1      -0.939   1.826   0.000  1.00  0.00     0.243 C 
ATOM     19  C   UNL     1      -2.713   2.797   0.000  1.00  0.00     0.140 C 
ATOM     20  C   UNL     1       1.800   1.292   0.000  1.00  0.00     0.014 C 
ATOM     21  C   UNL     1       3.448  -0.717   0.000  1.00  0.00     0.219 C 
ATOM     22  C   UNL     1       2.531  -3.148   0.000  1.00  0.00     0.339 C 
ATOM     23  O   UNL     1      -0.439   2.450   0.000  1.00  0.00    -0.465 OA
ATOM     24  C   UNL     1      -1.521   3.316   0.000  1.00  0.00     0.155 C 
ATOM     25  O   UNL     1       3.691  -2.197   0.000  1.00  0.00    -0.455 OA
ATOM     26  C   UNL     1      -0.730   3.196   0.000  1.00  0.00     0.308 C 
ATOM     27  C   UNL     1      -1.923  -0.081   0.000  1.00  0.00     0.019 C 
ATOM     28  C   UNL     1      -5.263  -0.083   0.000  1.00  0.00     0.042 C 
ATOM     29  C   UNL     1      -5.993   1.787   0.000  1.00  0.00     0.042 C 
ATOM     30  C   UNL     1       3.204   0.763   0.000  1.00  0.00     0.019 C 
ATOM     31  O   UNL     1       2.775  -4.628   0.000  1.00  0.00    -0.249 OA
ATOM     32  O   UNL     1       0.644   4.913   0.000  1.00  0.00    -0.252 OA
BRANCH  21  33
ATOM     33  C   UNL     1       4.608   0.234   0.000  1.00  0.00     0.031 A 
ATOM     34  C   UNL     1       4.520   1.731   0.000  1.00  0.00     0.202 A 
ATOM     35  C   UNL     1       6.059  -0.146   0.000  1.00  0.00     0.049 A 
ATOM     36  O   UNL     1       5.917   2.277   0.000  1.00  0.00    -0.472 OA
ATOM     37  C   UNL     1       6.868   1.117   0.000  1.00  0.00     0.195 A 
ENDBRANCH  21  33
ENDBRANCH   1   5
TORSDOF 3
