REMARK SMILES CC[C@H]1C(=O)CC2C3CCC4[C@@H](OC(C)=O)[C@@H](OC(C)=O)[C@@H](OC(C)=O)C[C@]4(C)C3CC[C@@]21C
REMARK SMILES IDX 3 1 4 2 5 3 6 4 7 5 8 6 9 7 10 8 11 9 12 10 17 11 22 12
REMARK SMILES IDX 27 13 28 14 29 15 30 16 31 17 32 18 33 19 34 20 2 21 1 22
REMARK SMILES IDX 23 23 24 24 25 25 26 26 13 27 14 28 15 29 16 30 18 31 19 32
REMARK SMILES IDX 20 33 21 34
REMARK H PARENT
ROOT
ATOM      1  C   UNL     1       5.723  -0.249   0.000  1.00  0.00     0.062 C 
ATOM      2  C   UNL     1       6.037   1.218   0.000  1.00  0.00     0.136 C 
ATOM      3  O   UNL     1       7.408   1.827   0.000  1.00  0.00    -0.299 OA
ATOM      4  C   UNL     1       4.739   1.970   0.000  1.00  0.00     0.080 C 
ATOM      5  C   UNL     1       3.623   0.967   0.000  1.00  0.00     0.006 C 
ATOM      6  C   UNL     1       2.131   1.126   0.000  1.00  0.00    -0.003 C 
ATOM      7  C   UNL     1       1.523   2.497   0.000  1.00  0.00     0.005 C 
ATOM      8  C   UNL     1       0.031   2.655   0.000  1.00  0.00     0.008 C 
ATOM      9  C   UNL     1      -0.852   1.443   0.000  1.00  0.00     0.040 C 
ATOM     10  C   UNL     1      -2.344   1.601   0.000  1.00  0.00     0.224 C 
ATOM     11  C   UNL     1      -3.227   0.389   0.000  1.00  0.00     0.258 C 
ATOM     12  C   UNL     1      -2.618  -0.983   0.000  1.00  0.00     0.221 C 
ATOM     13  C   UNL     1      -1.127  -1.141   0.000  1.00  0.00     0.057 C 
ATOM     14  C   UNL     1      -0.243   0.072   0.000  1.00  0.00    -0.019 C 
ATOM     15  C   UNL     1       0.365  -1.299   0.000  1.00  0.00     0.012 C 
ATOM     16  C   UNL     1       1.248  -0.087   0.000  1.00  0.00    -0.001 C 
ATOM     17  C   UNL     1       1.857  -1.458   0.000  1.00  0.00     0.005 C 
ATOM     18  C   UNL     1       3.348  -1.616   0.000  1.00  0.00     0.008 C 
ATOM     19  C   UNL     1       4.231  -0.404   0.000  1.00  0.00    -0.019 C 
ATOM     20  C   UNL     1       4.980  -1.704   0.000  1.00  0.00     0.012 C 
ENDROOT
BRANCH   1  21
ATOM     21  C   UNL     1       6.726  -1.365   0.000  1.00  0.00     0.008 C 
ATOM     22  C   UNL     1       8.193  -1.054   0.000  1.00  0.00     0.005 C 
ENDBRANCH   1  21
BRANCH  12  23
ATOM     23  O   UNL     1      -3.501  -2.195   0.000  1.00  0.00    -0.458 OA
BRANCH  23  24
ATOM     24  C   UNL     1      -2.893  -3.566   0.000  1.00  0.00     0.303 C 
ATOM     25  C   UNL     1      -3.776  -4.779   0.000  1.00  0.00     0.139 C 
ATOM     26  O   UNL     1      -1.401  -3.724   0.000  1.00  0.00    -0.253 OA
ENDBRANCH  23  24
ENDBRANCH  12  23
BRANCH  10  27
ATOM     27  O   UNL     1      -2.952   2.972   0.000  1.00  0.00    -0.458 OA
BRANCH  27  28
ATOM     28  C   UNL     1      -4.444   3.131   0.000  1.00  0.00     0.303 C 
ATOM     29  C   UNL     1      -5.052   4.502   0.000  1.00  0.00     0.139 C 
ATOM     30  O   UNL     1      -5.327   1.918   0.000  1.00  0.00    -0.253 OA
ENDBRANCH  27  28
ENDBRANCH  10  27
BRANCH  11  31
ATOM     31  O   UNL     1      -4.718   0.547   0.000  1.00  0.00    -0.455 OA
BRANCH  31  32
ATOM     32  C   UNL     1      -5.601  -0.665   0.000  1.00  0.00     0.303 C 
ATOM     33  C   UNL     1      -7.093  -0.507   0.000  1.00  0.00     0.139 C 
ATOM     34  O   UNL     1      -4.993  -2.037   0.000  1.00  0.00    -0.253 OA
ENDBRANCH  31  32
ENDBRANCH  11  31
TORSDOF 7
