REMARK SMILES COC(=O)C1=CO[C@@H](O)[C@H]2[C@@H]1[C@H](O)C[C@@H]2C
REMARK SMILES IDX 5 1 6 2 7 3 8 4 10 5 11 6 12 7 14 8 15 9 16 10 3 11 4 12
REMARK SMILES IDX 2 13 1 14 13 15 9 17
REMARK H PARENT 13 16 9 18
ROOT
ATOM      1  C   UNL     1      -0.975   0.570   0.000  1.00  0.00     0.078 C 
ATOM      2  C   UNL     1      -0.745   2.052   0.000  1.00  0.00     0.202 C 
ATOM      3  O   UNL     1       0.653   2.594   0.000  1.00  0.00    -0.472 OA
ATOM      4  C   UNL     1       1.822   1.654   0.000  1.00  0.00     0.307 C 
ATOM      5  C   UNL     1       1.592   0.172   0.000  1.00  0.00     0.071 C 
ATOM      6  C   UNL     1       0.194  -0.370   0.000  1.00  0.00     0.068 C 
ATOM      7  C   UNL     1       0.278  -1.868   0.000  1.00  0.00     0.123 C 
ATOM      8  C   UNL     1       1.728  -2.251   0.000  1.00  0.00     0.036 C 
ATOM      9  C   UNL     1       2.540  -0.991   0.000  1.00  0.00    -0.002 C 
ATOM     10  C   UNL     1       4.038  -0.907   0.000  1.00  0.00     0.008 C 
ENDROOT
BRANCH   1  11
ATOM     11  C   UNL     1      -2.374   0.027   0.000  1.00  0.00     0.337 C 
ATOM     12  O   UNL     1      -2.603  -1.455   0.000  1.00  0.00    -0.246 OA
BRANCH  11  13
ATOM     13  O   UNL     1      -3.542   0.967   0.000  1.00  0.00    -0.466 OA
ATOM     14  C   UNL     1      -4.941   0.425   0.000  1.00  0.00     0.282 C 
ENDBRANCH  11  13
ENDBRANCH   1  11
BRANCH   7  15
ATOM     15  O   UNL     1      -0.885  -2.816   0.000  1.00  0.00    -0.392 OA
ATOM     16  H   UNL     1       0.000   0.000   0.000  1.00  0.00     0.210 HD
ENDBRANCH   7  15
BRANCH   4  17
ATOM     17  O   UNL     1       3.221   2.196   0.000  1.00  0.00    -0.358 OA
ATOM     18  H   UNL     1       0.000   0.000   0.000  1.00  0.00     0.215 HD
ENDBRANCH   4  17
TORSDOF 4
