REMARK SMILES COc1c2ccoc2nc2c(OC)c(O)ccc12
REMARK SMILES IDX 3 1 4 2 5 3 6 4 7 5 8 6 9 7 10 8 11 9 14 10 16 11 17 12
REMARK SMILES IDX 18 13 2 14 1 15 12 16 13 17 15 18
REMARK H PARENT 15 19
ROOT
ATOM      1  C   UNL     1      -1.403  -1.082   0.000  1.00  0.00     0.141 A 
ATOM      2  C   UNL     1      -2.249   0.157   0.000  1.00  0.00     0.083 A 
ATOM      3  C   UNL     1      -3.736   0.357   0.000  1.00  0.00     0.056 A 
ATOM      4  C   UNL     1      -4.004   1.833   0.000  1.00  0.00     0.198 A 
ATOM      5  O   UNL     1      -2.684   2.545   0.000  1.00  0.00    -0.446 OA
ATOM      6  C   UNL     1      -1.599   1.509   0.000  1.00  0.00     0.230 A 
ATOM      7  N   UNL     1      -0.103   1.622   0.000  1.00  0.00    -0.208 NA
ATOM      8  C   UNL     1       0.743   0.383   0.000  1.00  0.00     0.124 A 
ATOM      9  C   UNL     1       2.238   0.495   0.000  1.00  0.00     0.187 A 
ATOM     10  C   UNL     1       3.084  -0.743   0.000  1.00  0.00     0.159 A 
ATOM     11  C   UNL     1       2.434  -2.095   0.000  1.00  0.00     0.051 A 
ATOM     12  C   UNL     1       0.938  -2.208   0.000  1.00  0.00     0.018 A 
ATOM     13  C   UNL     1       0.092  -0.969   0.000  1.00  0.00     0.047 A 
ENDROOT
BRANCH   1  14
ATOM     14  O   UNL     1      -2.054  -2.434   0.000  1.00  0.00    -0.495 OA
ATOM     15  C   UNL     1      -3.549  -2.547   0.000  1.00  0.00     0.278 C 
ENDBRANCH   1  14
BRANCH   9  16
ATOM     16  O   UNL     1       2.888   1.847   0.000  1.00  0.00    -0.491 OA
ATOM     17  C   UNL     1       4.384   1.960   0.000  1.00  0.00     0.278 C 
ENDBRANCH   9  16
BRANCH  10  18
ATOM     18  O   UNL     1       4.580  -0.630   0.000  1.00  0.00    -0.504 OA
ATOM     19  H   UNL     1       0.000   0.000   0.000  1.00  0.00     0.293 HD
ENDBRANCH  10  18
TORSDOF 3
