REMARK SMILES C[C@]12C(=O)O[C@@H]3CC4C(=O)CCCC4[C@@]4(CC[C@@]1(O)OC4)C32
REMARK SMILES IDX 1 1 2 2 3 3 4 4 5 5 6 6 7 7 8 8 9 9 10 10 11 11 12 12 13 13
REMARK SMILES IDX 14 14 15 15 16 16 17 17 18 18 20 19 21 20 22 21 19 22
REMARK H PARENT 19 23
ROOT
ATOM      1  C   UNL     1       3.507   0.322   0.000  1.00  0.00     0.030 C 
ATOM      2  C   UNL     1       2.010   0.233   0.000  1.00  0.00     0.126 C 
ATOM      3  C   UNL     1       2.537   1.637   0.000  1.00  0.00     0.318 C 
ATOM      4  O   UNL     1       3.983   2.036   0.000  1.00  0.00    -0.251 OA
ATOM      5  O   UNL     1       1.365   2.572   0.000  1.00  0.00    -0.461 OA
ATOM      6  C   UNL     1       0.113   1.746   0.000  1.00  0.00     0.182 C 
ATOM      7  C   UNL     1      -1.392   1.829   0.000  1.00  0.00     0.057 C 
ATOM      8  C   UNL     1      -2.327   0.656   0.000  1.00  0.00     0.063 C 
ATOM      9  C   UNL     1      -3.811   0.880   0.000  1.00  0.00     0.136 C 
ATOM     10  O   UNL     1      -4.358   2.276   0.000  1.00  0.00    -0.299 OA
ATOM     11  C   UNL     1      -4.746  -0.293   0.000  1.00  0.00     0.076 C 
ATOM     12  C   UNL     1      -4.198  -1.689   0.000  1.00  0.00     0.008 C 
ATOM     13  C   UNL     1      -2.715  -1.913   0.000  1.00  0.00     0.005 C 
ATOM     14  C   UNL     1      -1.779  -0.740   0.000  1.00  0.00     0.008 C 
ATOM     15  C   UNL     1      -0.296  -0.964   0.000  1.00  0.00     0.005 C 
ATOM     16  C   UNL     1       0.395  -2.296   0.000  1.00  0.00     0.016 C 
ATOM     17  C   UNL     1       1.893  -2.363   0.000  1.00  0.00     0.067 C 
ATOM     18  C   UNL     1       2.701  -1.099   0.000  1.00  0.00     0.181 C 
ATOM     19  O   UNL     1       1.882  -1.012   0.000  1.00  0.00    -0.348 OA
ATOM     20  C   UNL     1       0.527  -0.951   0.000  1.00  0.00     0.171 C 
ATOM     21  C   UNL     1       0.511   0.300   0.000  1.00  0.00     0.061 C 
ENDROOT
BRANCH  18  22
ATOM     22  O   UNL     1       4.199  -1.166   0.000  1.00  0.00    -0.365 OA
ATOM     23  H   UNL     1       0.000   0.000   0.000  1.00  0.00     0.214 HD
ENDBRANCH  18  22
TORSDOF 1
