REMARK SMILES C=CC(=C)CC[C@]1(C)[C@H](C)[C@@H](O)[C@H](OC(=O)/C=C/C=C/CCCCC)[C@@]23C(=C[C@H](O)C[C@@H]12)[C@@H](OC(C)=O)O[C@@H]3OC(C)=O
REMARK SMILES IDX 17 1 15 2 16 3 14 4 13 5 7 6 9 7 32 8 11 9 31 10 26 11 29 12
REMARK SMILES IDX 27 13 39 14 28 15 33 16 38 17 8 18 10 19 6 20 5 21 3 22 4 23
REMARK SMILES IDX 2 24 1 25 12 26 30 28 40 30 41 31 42 32 43 33 34 34 35 35
REMARK SMILES IDX 36 36 37 37 18 38 19 39 20 40 21 41 22 42 23 43 24 44 25 45
REMARK H PARENT 12 27 30 29
ROOT
ATOM      1  C   UNL     1      -2.885  -0.366   0.000  1.00  0.00     0.093 C 
ENDROOT
BRANCH   1   2
ATOM      2  C   UNL     1      -1.456   0.090   0.000  1.00  0.00     0.331 C 
ATOM      3  O   UNL     1      -1.500   1.589   0.000  1.00  0.00    -0.247 OA
BRANCH   2   4
ATOM      4  O   UNL     1      -0.347  -0.920   0.000  1.00  0.00    -0.455 OA
BRANCH   4   5
ATOM      5  C   UNL     1       1.083  -0.465   0.000  1.00  0.00     0.222 C 
ATOM      6  C   UNL     1       3.941   0.446   0.000  1.00  0.00    -0.023 C 
ATOM      7  C   UNL     1       2.832   1.456   0.000  1.00  0.00     0.025 C 
ATOM      8  C   UNL     1       3.621  -1.019   0.000  1.00  0.00     0.019 C 
ATOM      9  C   UNL     1       1.403   1.001   0.000  1.00  0.00     0.160 C 
ATOM     10  C   UNL     1       4.730  -2.029   0.000  1.00  0.00     0.041 C 
ATOM     11  C   UNL     1       2.192  -1.475   0.000  1.00  0.00     0.103 C 
ATOM     12  C   UNL     1       4.410  -3.495   0.000  1.00  0.00     0.137 C 
ATOM     13  C   UNL     1       1.871  -2.940   0.000  1.00  0.00     0.013 C 
ATOM     14  C   UNL     1       0.897  -0.717   0.000  1.00  0.00     0.329 C 
ATOM     15  C   UNL     1       2.981  -3.950   0.000  1.00  0.00     0.011 C 
ATOM     16  C   UNL     1       0.379  -3.088   0.000  1.00  0.00     0.343 C 
ATOM     17  O   UNL     1      -0.224  -1.715   0.000  1.00  0.00    -0.298 OA
ATOM     18  C   UNL     1       5.329  -0.124   0.000  1.00  0.00     0.012 C 
ATOM     19  C   UNL     1       3.152   2.922   0.000  1.00  0.00     0.011 C 
BRANCH   6  20
ATOM     20  C   UNL     1       4.743   1.714   0.000  1.00  0.00     0.012 C 
BRANCH  20  21
ATOM     21  C   UNL     1       6.242   1.653   0.000  1.00  0.00     0.035 C 
BRANCH  21  22
ATOM     22  C   UNL     1       7.044   2.920   0.000  1.00  0.00    -0.056 C 
ATOM     23  C   UNL     1       8.543   2.860   0.000  1.00  0.00     0.012 C 
BRANCH  22  24
ATOM     24  C   UNL     1       6.347   4.249   0.000  1.00  0.00    -0.005 C 
ATOM     25  C   UNL     1       7.149   5.516   0.000  1.00  0.00     0.009 C 
ENDBRANCH  22  24
ENDBRANCH  21  22
ENDBRANCH  20  21
ENDBRANCH   6  20
BRANCH   9  26
ATOM     26  O   UNL     1       0.294   2.011   0.000  1.00  0.00    -0.389 OA
ATOM     27  H   UNL     1       0.000   0.000   0.000  1.00  0.00     0.211 HD
ENDBRANCH   9  26
BRANCH  12  28
ATOM     28  O   UNL     1       5.519  -4.505   0.000  1.00  0.00    -0.389 OA
ATOM     29  H   UNL     1       0.000   0.000   0.000  1.00  0.00     0.211 HD
ENDBRANCH  12  28
BRANCH  14  30
ATOM     30  O   UNL     1       0.749   0.775   0.000  1.00  0.00    -0.435 OA
BRANCH  30  31
ATOM     31  C   UNL     1      -0.618   1.393   0.000  1.00  0.00     0.304 C 
ATOM     32  C   UNL     1      -0.767   2.886   0.000  1.00  0.00     0.139 C 
ATOM     33  O   UNL     1      -2.012   0.839   0.000  1.00  0.00    -0.253 OA
ENDBRANCH  30  31
ENDBRANCH  14  30
BRANCH  16  34
ATOM     34  O   UNL     1      -0.379  -4.383   0.000  1.00  0.00    -0.432 OA
BRANCH  34  35
ATOM     35  C   UNL     1      -1.879  -4.375   0.000  1.00  0.00     0.305 C 
ATOM     36  C   UNL     1      -2.636  -5.670   0.000  1.00  0.00     0.139 C 
ATOM     37  O   UNL     1      -2.621  -3.071   0.000  1.00  0.00    -0.253 OA
ENDBRANCH  34  35
ENDBRANCH  16  34
ENDBRANCH   4   5
ENDBRANCH   2   4
ENDBRANCH   1   2
BRANCH   1  38
ATOM     38  C   UNL     1      -3.994   0.644   0.000  1.00  0.00     0.007 C 
BRANCH  38  39
ATOM     39  C   UNL     1      -5.423   0.189   0.000  1.00  0.00    -0.004 C 
BRANCH  39  40
ATOM     40  C   UNL     1      -6.532   1.199   0.000  1.00  0.00    -0.027 C 
BRANCH  40  41
ATOM     41  C   UNL     1      -7.961   0.744   0.000  1.00  0.00     0.027 C 
BRANCH  41  42
ATOM     42  C   UNL     1      -9.070   1.754   0.000  1.00  0.00     0.004 C 
BRANCH  42  43
ATOM     43  C   UNL     1     -10.499   1.298   0.000  1.00  0.00     0.000 C 
BRANCH  43  44
ATOM     44  C   UNL     1     -11.608   2.308   0.000  1.00  0.00    -0.003 C 
ATOM     45  C   UNL     1     -13.038   1.853   0.000  1.00  0.00     0.004 C 
ENDBRANCH  43  44
ENDBRANCH  42  43
ENDBRANCH  41  42
ENDBRANCH  40  41
ENDBRANCH  39  40
ENDBRANCH  38  39
ENDBRANCH   1  38
TORSDOF 20
