REMARK SMILES CC1=CC2=C(CC3=C4C=C(C)OC=C4[C@H](O)[C@@](C)(O)C3=O)C(=O)[C@](C)(O)[C@@H](O)C2=CO1
REMARK SMILES IDX 6 1 5 2 2 3 3 4 31 5 4 6 30 7 29 8 22 9 27 10 24 11 1 12
REMARK SMILES IDX 23 13 25 14 28 15 26 17 7 19 8 20 20 21 9 22 14 23 17 24
REMARK SMILES IDX 10 25 13 26 15 27 12 28 21 29 18 30 11 31 19 32 16 34
REMARK H PARENT 28 16 26 18 19 33 16 35
ROOT
ATOM      1  C   UNL     1      -0.000  -0.912   0.000  1.00  0.00     0.080 C 
ENDROOT
BRANCH   1   2
ATOM      2  C   UNL     1       1.299  -0.162   0.000  1.00  0.00     0.011 C 
ATOM      3  C   UNL     1       3.897  -3.162   0.000  1.00  0.00     0.101 C 
ATOM      4  C   UNL     1       2.598  -2.412   0.000  1.00  0.00     0.051 C 
ATOM      5  O   UNL     1       5.196  -2.412   0.000  1.00  0.00    -0.469 OA
ATOM      6  C   UNL     1       2.598  -0.912   0.000  1.00  0.00    -0.006 C 
ATOM      7  C   UNL     1       5.196  -0.912   0.000  1.00  0.00     0.202 C 
ATOM      8  C   UNL     1       3.897  -0.162   0.000  1.00  0.00     0.027 C 
ATOM      9  C   UNL     1       1.299   1.338   0.000  1.00  0.00     0.194 C 
ATOM     10  C   UNL     1       3.897   1.338   0.000  1.00  0.00     0.187 C 
ATOM     11  C   UNL     1       2.598   2.088   0.000  1.00  0.00     0.154 C 
ATOM     12  C   UNL     1       3.897  -4.662   0.000  1.00  0.00     0.087 C 
ATOM     13  O   UNL     1       0.513   1.930   0.000  1.00  0.00    -0.291 OA
ATOM     14  C   UNL     1       3.562   3.237   0.000  1.00  0.00     0.054 C 
BRANCH  10  15
ATOM     15  O   UNL     1       5.196   2.088   0.000  1.00  0.00    -0.385 OA
ATOM     16  H   UNL     1       0.000   0.000   0.000  1.00  0.00     0.211 HD
ENDBRANCH  10  15
BRANCH  11  17
ATOM     17  O   UNL     1       1.634   3.237   0.000  1.00  0.00    -0.379 OA
ATOM     18  H   UNL     1       0.000   0.000   0.000  1.00  0.00     0.212 HD
ENDBRANCH  11  17
ENDBRANCH   1   2
BRANCH   1  19
ATOM     19  C   UNL     1      -1.299  -0.162   0.000  1.00  0.00     0.011 C 
ATOM     20  C   UNL     1      -2.598  -0.912   0.000  1.00  0.00    -0.006 C 
ATOM     21  C   UNL     1      -1.299   1.338   0.000  1.00  0.00     0.194 C 
ATOM     22  C   UNL     1      -2.598  -2.412   0.000  1.00  0.00     0.051 C 
ATOM     23  C   UNL     1      -3.897  -0.162   0.000  1.00  0.00     0.027 C 
ATOM     24  C   UNL     1      -2.598   2.088   0.000  1.00  0.00     0.154 C 
ATOM     25  C   UNL     1      -3.897  -3.162   0.000  1.00  0.00     0.101 C 
ATOM     26  C   UNL     1      -5.196  -0.912   0.000  1.00  0.00     0.202 C 
ATOM     27  C   UNL     1      -3.897   1.338   0.000  1.00  0.00     0.187 C 
ATOM     28  O   UNL     1      -5.196  -2.412   0.000  1.00  0.00    -0.469 OA
ATOM     29  O   UNL     1      -0.513   1.930   0.000  1.00  0.00    -0.291 OA
ATOM     30  C   UNL     1      -1.634   3.237   0.000  1.00  0.00     0.054 C 
ATOM     31  C   UNL     1      -3.897  -4.662   0.000  1.00  0.00     0.087 C 
BRANCH  24  32
ATOM     32  O   UNL     1      -3.562   3.237   0.000  1.00  0.00    -0.379 OA
ATOM     33  H   UNL     1       0.000   0.000   0.000  1.00  0.00     0.212 HD
ENDBRANCH  24  32
BRANCH  27  34
ATOM     34  O   UNL     1      -5.196   2.088   0.000  1.00  0.00    -0.385 OA
ATOM     35  H   UNL     1       0.000   0.000   0.000  1.00  0.00     0.211 HD
ENDBRANCH  27  34
ENDBRANCH   1  19
TORSDOF 6
