REMARK SMILES COC(=O)CCc1c(OC)cc2c(c1OC)C=CC(C)(C)O2
REMARK SMILES IDX 5 1 3 2 4 3 2 4 1 5 6 6 7 7 8 8 14 9 11 10 13 11 12 12 17 13
REMARK SMILES IDX 22 14 18 15 19 16 20 17 21 18 9 19 10 20 15 21 16 22
REMARK H PARENT
ROOT
ATOM      1  C   UNL     1      -3.086   0.434   0.000  1.00  0.00     0.128 C 
ENDROOT
BRANCH   1   2
ATOM      2  C   UNL     1      -4.585   0.386   0.000  1.00  0.00     0.305 C 
ATOM      3  O   UNL     1      -5.293  -0.936   0.000  1.00  0.00    -0.252 OA
BRANCH   2   4
ATOM      4  O   UNL     1      -5.376   1.661   0.000  1.00  0.00    -0.469 OA
ATOM      5  C   UNL     1      -6.875   1.613   0.000  1.00  0.00     0.282 C 
ENDBRANCH   2   4
ENDBRANCH   1   2
BRANCH   1   6
ATOM      6  C   UNL     1      -2.295  -0.841   0.000  1.00  0.00     0.055 C 
BRANCH   6   7
ATOM      7  C   UNL     1      -0.796  -0.793   0.000  1.00  0.00     0.038 A 
ATOM      8  C   UNL     1      -0.005  -2.068   0.000  1.00  0.00     0.129 A 
ATOM      9  C   UNL     1      -0.087   0.529   0.000  1.00  0.00     0.136 A 
ATOM     10  C   UNL     1       1.495  -2.020   0.000  1.00  0.00     0.094 A 
ATOM     11  C   UNL     1       1.412   0.577   0.000  1.00  0.00     0.059 A 
ATOM     12  C   UNL     1       2.203  -0.698   0.000  1.00  0.00     0.135 A 
ATOM     13  C   UNL     1       2.120   1.899   0.000  1.00  0.00     0.015 C 
ATOM     14  O   UNL     1       3.702  -0.650   0.000  1.00  0.00    -0.483 OA
ATOM     15  C   UNL     1       3.620   1.946   0.000  1.00  0.00     0.021 C 
ATOM     16  C   UNL     1       4.410   0.672   0.000  1.00  0.00     0.122 C 
ATOM     17  C   UNL     1       5.528   1.672   0.000  1.00  0.00     0.061 C 
ATOM     18  C   UNL     1       5.590  -0.255   0.000  1.00  0.00     0.061 C 
BRANCH   8  19
ATOM     19  O   UNL     1      -0.713  -3.390   0.000  1.00  0.00    -0.496 OA
ATOM     20  C   UNL     1       0.078  -4.665   0.000  1.00  0.00     0.278 C 
ENDBRANCH   8  19
BRANCH   9  21
ATOM     21  O   UNL     1      -0.878   1.804   0.000  1.00  0.00    -0.496 OA
ATOM     22  C   UNL     1      -0.170   3.126   0.000  1.00  0.00     0.278 C 
ENDBRANCH   9  21
ENDBRANCH   6   7
ENDBRANCH   1   6
TORSDOF 6
