REMARK SMILES COc1ccc(C(=O)C2=Cc3cc(OC)c(OC)cc3CO2)c(O)c1
REMARK SMILES IDX 7 1 8 2 6 3 3 4 4 5 25 6 5 7 23 8 2 9 1 10 24 11 9 13 10 14
REMARK SMILES IDX 22 15 11 16 21 17 12 18 20 19 13 20 19 21 16 22 14 23 15 24
REMARK SMILES IDX 17 25 18 26
REMARK H PARENT 24 12
ROOT
ATOM      1  C   UNL     1      -1.625  -1.424   0.000  1.00  0.00     0.231 C 
ATOM      2  O   UNL     1      -1.585  -2.924   0.000  1.00  0.00    -0.285 OA
ENDROOT
BRANCH   1   3
ATOM      3  C   UNL     1      -2.944  -0.709   0.000  1.00  0.00     0.068 A 
ATOM      4  C   UNL     1      -5.581   0.721   0.000  1.00  0.00     0.122 A 
ATOM      5  C   UNL     1      -4.303   1.505   0.000  1.00  0.00     0.047 A 
ATOM      6  C   UNL     1      -5.541  -0.779   0.000  1.00  0.00     0.093 A 
ATOM      7  C   UNL     1      -2.984   0.790   0.000  1.00  0.00     0.020 A 
ATOM      8  C   UNL     1      -4.222  -1.494   0.000  1.00  0.00     0.130 A 
BRANCH   4   9
ATOM      9  O   UNL     1      -6.900   1.435   0.000  1.00  0.00    -0.497 OA
ATOM     10  C   UNL     1      -6.940   2.935   0.000  1.00  0.00     0.278 C 
ENDBRANCH   4   9
BRANCH   8  11
ATOM     11  O   UNL     1      -4.182  -2.993   0.000  1.00  0.00    -0.507 OA
ATOM     12  H   UNL     1       0.000   0.000   0.000  1.00  0.00     0.293 HD
ENDBRANCH   8  11
ENDBRANCH   1   3
BRANCH   1  13
ATOM     13  C   UNL     1      -0.347  -0.639   0.000  1.00  0.00     0.168 C 
ATOM     14  C   UNL     1       0.972  -1.354   0.000  1.00  0.00     0.059 C 
ATOM     15  O   UNL     1      -0.387   0.860   0.000  1.00  0.00    -0.485 OA
ATOM     16  C   UNL     1       2.250  -0.570   0.000  1.00  0.00    -0.011 A 
ATOM     17  C   UNL     1       0.891   1.645   0.000  1.00  0.00     0.266 C 
ATOM     18  C   UNL     1       3.569  -1.285   0.000  1.00  0.00     0.059 A 
ATOM     19  C   UNL     1       2.210   0.930   0.000  1.00  0.00     0.001 A 
ATOM     20  C   UNL     1       4.848  -0.500   0.000  1.00  0.00     0.161 A 
ATOM     21  C   UNL     1       3.489   1.714   0.000  1.00  0.00     0.058 A 
ATOM     22  C   UNL     1       4.807   0.999   0.000  1.00  0.00     0.161 A 
BRANCH  20  23
ATOM     23  O   UNL     1       6.166  -1.215   0.000  1.00  0.00    -0.493 OA
ATOM     24  C   UNL     1       6.207  -2.715   0.000  1.00  0.00     0.278 C 
ENDBRANCH  20  23
BRANCH  22  25
ATOM     25  O   UNL     1       6.086   1.784   0.000  1.00  0.00    -0.493 OA
ATOM     26  C   UNL     1       6.046   3.283   0.000  1.00  0.00     0.278 C 
ENDBRANCH  22  25
ENDBRANCH   1  13
TORSDOF 6
