REMARK SMILES C[C@@H]1CC[C@@]2(C)C(C3=C[C@@H](O)C4[C@@]5(C)CC[C@H](O)C(C)(C)C5CC[C@@]4(C)[C@]3(C)C[C@@H]2O)[C@H]1C
REMARK SMILES IDX 1 1 2 2 3 3 4 4 5 5 6 6 7 7 8 8 9 9 10 10 12 11 13 12 14 13
REMARK SMILES IDX 15 14 16 15 17 16 19 17 20 18 21 19 22 20 23 21 24 22 25 23
REMARK SMILES IDX 26 24 27 25 28 26 29 27 30 28 32 29 33 30 31 31 11 33 18 35
REMARK H PARENT 31 32 11 34 18 36
ROOT
ATOM      1  C   UNL     1      -6.190  -2.914   0.000  1.00  0.00     0.008 C 
ATOM      2  C   UNL     1      -5.403  -1.637   0.000  1.00  0.00    -0.011 C 
ATOM      3  C   UNL     1      -6.115  -0.317   0.000  1.00  0.00     0.004 C 
ATOM      4  C   UNL     1      -5.327   0.960   0.000  1.00  0.00     0.010 C 
ATOM      5  C   UNL     1      -3.828   0.917   0.000  1.00  0.00     0.000 C 
ATOM      6  C   UNL     1      -4.540   2.237   0.000  1.00  0.00     0.015 C 
ATOM      7  C   UNL     1      -3.116  -0.403   0.000  1.00  0.00     0.027 C 
ATOM      8  C   UNL     1      -1.617  -0.447   0.000  1.00  0.00    -0.061 C 
ATOM      9  C   UNL     1      -0.904  -1.767   0.000  1.00  0.00     0.005 C 
ATOM     10  C   UNL     1       0.595  -1.810   0.000  1.00  0.00     0.141 C 
ATOM     11  C   UNL     1       1.382  -0.533   0.000  1.00  0.00     0.035 C 
ATOM     12  C   UNL     1       2.881  -0.577   0.000  1.00  0.00    -0.023 C 
ATOM     13  C   UNL     1       2.094  -1.854   0.000  1.00  0.00     0.012 C 
ATOM     14  C   UNL     1       3.594  -1.897   0.000  1.00  0.00     0.010 C 
ATOM     15  C   UNL     1       5.093  -1.940   0.000  1.00  0.00     0.033 C 
ATOM     16  C   UNL     1       5.880  -0.664   0.000  1.00  0.00     0.120 C 
ATOM     17  C   UNL     1       5.168   0.657   0.000  1.00  0.00    -0.006 C 
ATOM     18  C   UNL     1       4.950   2.141   0.000  1.00  0.00     0.014 C 
ATOM     19  C   UNL     1       6.592   1.129   0.000  1.00  0.00     0.014 C 
ATOM     20  C   UNL     1       3.669   0.700   0.000  1.00  0.00     0.004 C 
ATOM     21  C   UNL     1       2.957   2.020   0.000  1.00  0.00     0.005 C 
ATOM     22  C   UNL     1       1.457   2.063   0.000  1.00  0.00     0.008 C 
ATOM     23  C   UNL     1       0.670   0.787   0.000  1.00  0.00    -0.017 C 
ATOM     24  C   UNL     1      -0.042   2.107   0.000  1.00  0.00     0.013 C 
ATOM     25  C   UNL     1      -0.829   0.830   0.000  1.00  0.00    -0.003 C 
ATOM     26  C   UNL     1      -2.329   0.873   0.000  1.00  0.00     0.017 C 
ATOM     27  C   UNL     1      -1.542   2.150   0.000  1.00  0.00     0.044 C 
ATOM     28  C   UNL     1      -3.041   2.194   0.000  1.00  0.00     0.121 C 
ATOM     29  C   UNL     1      -3.903  -1.680   0.000  1.00  0.00    -0.004 C 
ATOM     30  C   UNL     1      -3.191  -3.000   0.000  1.00  0.00     0.008 C 
ENDROOT
BRANCH  28  31
ATOM     31  O   UNL     1      -3.753   3.514   0.000  1.00  0.00    -0.393 OA
ATOM     32  H   UNL     1       0.000   0.000   0.000  1.00  0.00     0.210 HD
ENDBRANCH  28  31
BRANCH  10  33
ATOM     33  O   UNL     1       1.307  -3.131   0.000  1.00  0.00    -0.389 OA
ATOM     34  H   UNL     1       0.000   0.000   0.000  1.00  0.00     0.211 HD
ENDBRANCH  10  33
BRANCH  16  35
ATOM     35  O   UNL     1       7.380  -0.707   0.000  1.00  0.00    -0.393 OA
ATOM     36  H   UNL     1       0.000   0.000   0.000  1.00  0.00     0.210 HD
ENDBRANCH  16  35
TORSDOF 3
