REMARK SMILES C=C[C@]1(C)CCC2C(=CC[C@H]3C(C)(C)[C@@H](O)CC[C@]23C)C1
REMARK SMILES IDX 3 1 4 2 5 3 6 4 7 5 8 6 9 7 10 8 11 9 12 10 13 11 14 12
REMARK SMILES IDX 15 13 17 14 18 15 19 16 20 17 21 18 2 19 1 20 16 21
REMARK H PARENT 16 22
ROOT
ATOM      1  C   UNL     1      -3.648  -0.342   0.000  1.00  0.00    -0.011 C 
ATOM      2  C   UNL     1      -4.615  -1.489   0.000  1.00  0.00     0.016 C 
ATOM      3  C   UNL     1      -3.132   1.066   0.000  1.00  0.00     0.012 C 
ATOM      4  C   UNL     1      -1.654   1.323   0.000  1.00  0.00     0.009 C 
ATOM      5  C   UNL     1      -0.693   0.172   0.000  1.00  0.00     0.021 C 
ATOM      6  C   UNL     1      -1.209  -1.237   0.000  1.00  0.00    -0.070 C 
ATOM      7  C   UNL     1      -0.248  -2.388   0.000  1.00  0.00    -0.027 C 
ATOM      8  C   UNL     1       1.230  -2.131   0.000  1.00  0.00     0.032 C 
ATOM      9  C   UNL     1       1.747  -0.723   0.000  1.00  0.00     0.007 C 
ATOM     10  C   UNL     1       3.224  -0.466   0.000  1.00  0.00    -0.006 C 
ATOM     11  C   UNL     1       4.701  -0.730   0.000  1.00  0.00     0.014 C 
ATOM     12  C   UNL     1       3.221  -1.966   0.000  1.00  0.00     0.014 C 
ATOM     13  C   UNL     1       3.741   0.943   0.000  1.00  0.00     0.120 C 
ATOM     14  C   UNL     1       2.780   2.094   0.000  1.00  0.00     0.033 C 
ATOM     15  C   UNL     1       1.302   1.837   0.000  1.00  0.00     0.010 C 
ATOM     16  C   UNL     1       0.785   0.429   0.000  1.00  0.00    -0.022 C 
ATOM     17  C   UNL     1      -0.176   1.580   0.000  1.00  0.00     0.012 C 
ATOM     18  C   UNL     1      -2.687  -1.494   0.000  1.00  0.00     0.041 C 
ENDROOT
BRANCH   1  19
ATOM     19  C   UNL     1      -4.946   0.411   0.000  1.00  0.00    -0.028 C 
ATOM     20  C   UNL     1      -4.942   1.911   0.000  1.00  0.00     0.004 C 
ENDBRANCH   1  19
BRANCH  13  21
ATOM     21  O   UNL     1       5.219   1.199   0.000  1.00  0.00    -0.393 OA
ATOM     22  H   UNL     1       0.000   0.000   0.000  1.00  0.00     0.210 HD
ENDBRANCH  13  21
TORSDOF 2
