REMARK SMILES COc1cc2occ(-c3ccc(OC)c(OC)c3OC)c(=O)c2cc1OC
REMARK SMILES IDX 3 1 4 2 5 3 23 4 24 5 25 6 21 7 22 8 8 9 7 10 6 11 2 12 1 13
REMARK SMILES IDX 26 14 27 15 9 16 10 17 18 18 11 19 15 20 12 21 19 22 20 23
REMARK SMILES IDX 16 24 17 25 13 26 14 27
REMARK H PARENT
ROOT
ATOM      1  C   UNL     1       4.989  -0.362   0.000  1.00  0.00     0.164 A 
ATOM      2  C   UNL     1       3.903  -1.397   0.000  1.00  0.00     0.098 A 
ATOM      3  C   UNL     1       2.464  -0.975   0.000  1.00  0.00     0.141 A 
ATOM      4  C   UNL     1       2.111   0.483   0.000  1.00  0.00     0.069 A 
ATOM      5  C   UNL     1       3.196   1.518   0.000  1.00  0.00     0.066 A 
ATOM      6  C   UNL     1       4.636   1.095   0.000  1.00  0.00     0.161 A 
ATOM      7  C   UNL     1       0.671   0.906   0.000  1.00  0.00     0.200 A 
ATOM      8  O   UNL     1       0.318   2.364   0.000  1.00  0.00    -0.288 OA
ATOM      9  C   UNL     1      -0.414  -0.129   0.000  1.00  0.00     0.069 A 
ATOM     10  C   UNL     1      -0.061  -1.587   0.000  1.00  0.00     0.208 A 
ATOM     11  O   UNL     1       1.378  -2.010   0.000  1.00  0.00    -0.463 OA
ENDROOT
BRANCH   1  12
ATOM     12  O   UNL     1       6.428  -0.785   0.000  1.00  0.00    -0.493 OA
ATOM     13  C   UNL     1       6.782  -2.243   0.000  1.00  0.00     0.278 C 
ENDBRANCH   1  12
BRANCH   6  14
ATOM     14  O   UNL     1       5.721   2.130   0.000  1.00  0.00    -0.493 OA
ATOM     15  C   UNL     1       7.160   1.707   0.000  1.00  0.00     0.278 C 
ENDBRANCH   6  14
BRANCH   9  16
ATOM     16  C   UNL     1      -1.853   0.294   0.000  1.00  0.00     0.035 A 
ATOM     17  C   UNL     1      -2.207   1.752   0.000  1.00  0.00     0.017 A 
ATOM     18  C   UNL     1      -2.939  -0.741   0.000  1.00  0.00     0.172 A 
ATOM     19  C   UNL     1      -3.646   2.174   0.000  1.00  0.00     0.051 A 
ATOM     20  C   UNL     1      -4.378  -0.318   0.000  1.00  0.00     0.203 A 
ATOM     21  C   UNL     1      -4.732   1.139   0.000  1.00  0.00     0.164 A 
BRANCH  18  22
ATOM     22  O   UNL     1      -2.586  -2.199   0.000  1.00  0.00    -0.492 OA
ATOM     23  C   UNL     1      -3.671  -3.234   0.000  1.00  0.00     0.278 C 
ENDBRANCH  18  22
BRANCH  20  24
ATOM     24  O   UNL     1      -5.464  -1.353   0.000  1.00  0.00    -0.490 OA
ATOM     25  C   UNL     1      -5.111  -2.811   0.000  1.00  0.00     0.278 C 
ENDBRANCH  20  24
BRANCH  21  26
ATOM     26  O   UNL     1      -6.171   1.562   0.000  1.00  0.00    -0.493 OA
ATOM     27  C   UNL     1      -6.524   3.020   0.000  1.00  0.00     0.278 C 
ENDBRANCH  21  26
ENDBRANCH   9  16
TORSDOF 6
