REMARK SMILES C/C=C(\C)C(=O)O[C@H]1CC[C@]23C[C@]24CC[C@]2(C)[C@@H]([C@H](C)CCCC(C)C)CC[C@@]2(C)[C@@H]4CC[C@H]3C1(C)C
REMARK SMILES IDX 8 1 9 2 10 3 11 4 12 5 13 6 14 7 15 8 16 9 17 10 18 11 27 12
REMARK SMILES IDX 28 13 29 14 30 15 31 16 32 17 33 18 34 19 35 20 36 21 37 22
REMARK SMILES IDX 7 23 5 24 6 25 3 26 4 27 2 28 1 29 19 30 20 31 21 32 22 33
REMARK SMILES IDX 23 34 24 35 25 36 26 37
REMARK H PARENT
ROOT
ATOM      1  C   UNL     1       4.428   0.018   0.000  1.00  0.00     0.182 C 
ATOM      2  C   UNL     1       3.496  -1.157   0.000  1.00  0.00     0.046 C 
ATOM      3  C   UNL     1       2.012  -0.937   0.000  1.00  0.00     0.012 C 
ATOM      4  C   UNL     1       1.460   0.458   0.000  1.00  0.00    -0.020 C 
ATOM      5  C   UNL     1       0.528  -0.717   0.000  1.00  0.00     0.015 C 
ATOM      6  C   UNL     1      -0.023   0.678   0.000  1.00  0.00    -0.020 C 
ATOM      7  C   UNL     1      -0.956  -0.497   0.000  1.00  0.00     0.008 C 
ATOM      8  C   UNL     1      -2.440  -0.277   0.000  1.00  0.00     0.008 C 
ATOM      9  C   UNL     1      -2.991   1.118   0.000  1.00  0.00    -0.024 C 
ATOM     10  C   UNL     1      -4.041   0.047   0.000  1.00  0.00     0.012 C 
ATOM     11  C   UNL     1      -4.397   1.642   0.000  1.00  0.00    -0.002 C 
ATOM     12  C   UNL     1      -4.333   3.140   0.000  1.00  0.00     0.005 C 
ATOM     13  C   UNL     1      -2.888   3.543   0.000  1.00  0.00     0.008 C 
ATOM     14  C   UNL     1      -2.059   2.293   0.000  1.00  0.00    -0.024 C 
ATOM     15  C   UNL     1      -1.254   3.559   0.000  1.00  0.00     0.012 C 
ATOM     16  C   UNL     1      -0.575   2.073   0.000  1.00  0.00     0.002 C 
ATOM     17  C   UNL     1       0.358   3.248   0.000  1.00  0.00     0.005 C 
ATOM     18  C   UNL     1       1.841   3.028   0.000  1.00  0.00     0.005 C 
ATOM     19  C   UNL     1       2.393   1.633   0.000  1.00  0.00     0.005 C 
ATOM     20  C   UNL     1       3.877   1.413   0.000  1.00  0.00     0.005 C 
ATOM     21  C   UNL     1       3.836   2.913   0.000  1.00  0.00     0.015 C 
ATOM     22  C   UNL     1       5.346   1.714   0.000  1.00  0.00     0.015 C 
ENDROOT
BRANCH   1  23
ATOM     23  O   UNL     1       5.912  -0.202   0.000  1.00  0.00    -0.458 OA
BRANCH  23  24
ATOM     24  C   UNL     1       6.463  -1.597   0.000  1.00  0.00     0.333 C 
ATOM     25  O   UNL     1       5.531  -2.772   0.000  1.00  0.00    -0.247 OA
BRANCH  24  26
ATOM     26  C   UNL     1       7.947  -1.817   0.000  1.00  0.00     0.030 C 
ATOM     27  C   UNL     1       8.879  -0.641   0.000  1.00  0.00     0.052 C 
BRANCH  26  28
ATOM     28  C   UNL     1       8.498  -3.211   0.000  1.00  0.00    -0.020 C 
ATOM     29  C   UNL     1       9.982  -3.431   0.000  1.00  0.00     0.036 C 
ENDBRANCH  26  28
ENDBRANCH  24  26
ENDBRANCH  23  24
ENDBRANCH   1  23
BRANCH  11  30
ATOM     30  C   UNL     1      -5.646   0.812   0.000  1.00  0.00    -0.011 C 
ATOM     31  C   UNL     1      -6.990   1.480   0.000  1.00  0.00     0.008 C 
BRANCH  30  32
ATOM     32  C   UNL     1      -5.553  -0.685   0.000  1.00  0.00     0.003 C 
BRANCH  32  33
ATOM     33  C   UNL     1      -6.803  -1.514   0.000  1.00  0.00     0.001 C 
BRANCH  33  34
ATOM     34  C   UNL     1      -6.710  -3.011   0.000  1.00  0.00     0.003 C 
BRANCH  34  35
ATOM     35  C   UNL     1      -7.959  -3.841   0.000  1.00  0.00    -0.017 C 
ATOM     36  C   UNL     1      -7.866  -5.338   0.000  1.00  0.00     0.007 C 
ATOM     37  C   UNL     1      -9.303  -3.173   0.000  1.00  0.00     0.007 C 
ENDBRANCH  34  35
ENDBRANCH  33  34
ENDBRANCH  32  33
ENDBRANCH  30  32
ENDBRANCH  11  30
TORSDOF 9
