REMARK SMILES Cn1c(-c2ccccc2)cc(=O)c2ccccc21
REMARK SMILES IDX 1 1 2 2 3 3 10 4 11 5 12 6 13 7 14 8 15 9 16 10 17 11 18 12
REMARK SMILES IDX 4 13 5 14 9 15 6 16 8 17 7 18
REMARK H PARENT
ROOT
ATOM      1  C   UNL     1      -0.357   2.295   0.000  1.00  0.00     0.150 C 
ATOM      2  N   UNL     1       0.235   0.917   0.000  1.00  0.00    -0.343 N 
ATOM      3  C   UNL     1      -0.663  -0.285   0.000  1.00  0.00     0.052 A 
ATOM      4  C   UNL     1      -0.071  -1.663   0.000  1.00  0.00     0.079 A 
ATOM      5  C   UNL     1       1.418  -1.840   0.000  1.00  0.00     0.190 A 
ATOM      6  O   UNL     1       2.010  -3.218   0.000  1.00  0.00    -0.289 OA
ATOM      7  C   UNL     1       2.316  -0.638   0.000  1.00  0.00     0.046 A 
ATOM      8  C   UNL     1       3.806  -0.815   0.000  1.00  0.00     0.014 A 
ATOM      9  C   UNL     1       4.703   0.387   0.000  1.00  0.00     0.001 A 
ATOM     10  C   UNL     1       4.111   1.766   0.000  1.00  0.00     0.002 A 
ATOM     11  C   UNL     1       2.622   1.942   0.000  1.00  0.00     0.027 A 
ATOM     12  C   UNL     1       1.724   0.740   0.000  1.00  0.00     0.052 A 
ENDROOT
BRANCH   3  13
ATOM     13  C   UNL     1      -2.153  -0.108   0.000  1.00  0.00    -0.002 A 
ATOM     14  C   UNL     1      -2.745   1.270   0.000  1.00  0.00     0.010 A 
ATOM     15  C   UNL     1      -3.050  -1.310   0.000  1.00  0.00     0.010 A 
ATOM     16  C   UNL     1      -4.234   1.447   0.000  1.00  0.00     0.001 A 
ATOM     17  C   UNL     1      -4.540  -1.133   0.000  1.00  0.00     0.001 A 
ATOM     18  C   UNL     1      -5.132   0.245   0.000  1.00  0.00     0.000 A 
ENDBRANCH   3  13
TORSDOF 1
