REMARK SMILES COc1c2c(cc3c(=O)c4cccc(O)c4n(C)c13)C=CC(C)(C)O2
REMARK SMILES IDX 3 1 4 2 25 3 22 4 23 5 24 6 21 7 20 8 5 9 6 10 7 11 19 12
REMARK SMILES IDX 17 13 18 14 16 15 14 16 13 17 12 18 11 19 10 20 8 21 9 22
REMARK SMILES IDX 2 23 1 24 15 25
REMARK H PARENT 15 26
ROOT
ATOM      1  C   UNL     1       1.030  -0.985   0.000  1.00  0.00     0.185 A 
ATOM      2  C   UNL     1       2.315  -0.211   0.000  1.00  0.00     0.171 A 
ATOM      3  O   UNL     1       3.628  -0.936   0.000  1.00  0.00    -0.479 OA
ATOM      4  C   UNL     1       4.913  -0.162   0.000  1.00  0.00     0.122 C 
ATOM      5  C   UNL     1       6.385   0.126   0.000  1.00  0.00     0.061 C 
ATOM      6  C   UNL     1       5.452  -1.561   0.000  1.00  0.00     0.061 C 
ATOM      7  C   UNL     1       4.884   1.338   0.000  1.00  0.00     0.021 C 
ATOM      8  C   UNL     1       3.571   2.063   0.000  1.00  0.00     0.012 C 
ATOM      9  C   UNL     1       2.287   1.289   0.000  1.00  0.00     0.021 A 
ATOM     10  C   UNL     1       0.974   2.015   0.000  1.00  0.00     0.026 A 
ATOM     11  C   UNL     1      -0.311   1.240   0.000  1.00  0.00     0.051 A 
ATOM     12  C   UNL     1      -0.283  -0.259   0.000  1.00  0.00     0.099 A 
ATOM     13  N   UNL     1      -1.567  -1.034   0.000  1.00  0.00    -0.337 N 
ATOM     14  C   UNL     1      -1.539  -2.533   0.000  1.00  0.00     0.150 C 
ATOM     15  C   UNL     1      -2.880  -0.308   0.000  1.00  0.00     0.095 A 
ATOM     16  C   UNL     1      -4.165  -1.083   0.000  1.00  0.00     0.139 A 
ATOM     17  C   UNL     1      -5.478  -0.357   0.000  1.00  0.00     0.048 A 
ATOM     18  C   UNL     1      -5.506   1.143   0.000  1.00  0.00     0.005 A 
ATOM     19  C   UNL     1      -4.221   1.917   0.000  1.00  0.00     0.014 A 
ATOM     20  C   UNL     1      -2.908   1.192   0.000  1.00  0.00     0.050 A 
ATOM     21  C   UNL     1      -1.624   1.966   0.000  1.00  0.00     0.197 A 
ATOM     22  O   UNL     1      -1.652   3.466   0.000  1.00  0.00    -0.288 OA
ENDROOT
BRANCH   1  23
ATOM     23  O   UNL     1       1.058  -2.485   0.000  1.00  0.00    -0.491 OA
ATOM     24  C   UNL     1      -0.226  -3.259   0.000  1.00  0.00     0.278 C 
ENDBRANCH   1  23
BRANCH  16  25
ATOM     25  O   UNL     1      -4.137  -2.582   0.000  1.00  0.00    -0.506 OA
ATOM     26  H   UNL     1       0.000   0.000   0.000  1.00  0.00     0.293 HD
ENDBRANCH  16  25
TORSDOF 2
