REMARK SMILES COc1c2c(c(O)c3c(=O)c4cccc(O)c4n(C)c13)C=CC(C)(C)O2
REMARK SMILES IDX 3 1 4 2 26 3 23 4 24 5 25 6 22 7 21 8 5 9 6 10 8 11 20 12
REMARK SMILES IDX 18 13 19 14 17 15 15 16 14 17 13 18 12 19 11 20 9 21 10 22
REMARK SMILES IDX 2 23 1 24 7 25 16 27
REMARK H PARENT 7 26 16 28
ROOT
ATOM      1  C   UNL     1       0.977  -1.135   0.000  1.00  0.00     0.186 A 
ATOM      2  C   UNL     1       2.273  -0.380   0.000  1.00  0.00     0.175 A 
ATOM      3  O   UNL     1       3.575  -1.125   0.000  1.00  0.00    -0.479 OA
ATOM      4  C   UNL     1       4.871  -0.369   0.000  1.00  0.00     0.122 C 
ATOM      5  C   UNL     1       6.348  -0.103   0.000  1.00  0.00     0.061 C 
ATOM      6  C   UNL     1       5.390  -1.777   0.000  1.00  0.00     0.061 C 
ATOM      7  C   UNL     1       4.865   1.131   0.000  1.00  0.00     0.021 C 
ATOM      8  C   UNL     1       3.563   1.875   0.000  1.00  0.00     0.016 C 
ATOM      9  C   UNL     1       2.267   1.120   0.000  1.00  0.00     0.063 A 
ATOM     10  C   UNL     1       0.965   1.865   0.000  1.00  0.00     0.140 A 
ATOM     11  C   UNL     1      -0.331   1.110   0.000  1.00  0.00     0.093 A 
ATOM     12  C   UNL     1      -0.325  -0.390   0.000  1.00  0.00     0.103 A 
ATOM     13  N   UNL     1      -1.621  -1.145   0.000  1.00  0.00    -0.337 N 
ATOM     14  C   UNL     1      -1.615  -2.645   0.000  1.00  0.00     0.150 C 
ATOM     15  C   UNL     1      -2.923  -0.400   0.000  1.00  0.00     0.095 A 
ATOM     16  C   UNL     1      -4.219  -1.155   0.000  1.00  0.00     0.139 A 
ATOM     17  C   UNL     1      -5.521  -0.410   0.000  1.00  0.00     0.048 A 
ATOM     18  C   UNL     1      -5.527   1.090   0.000  1.00  0.00     0.005 A 
ATOM     19  C   UNL     1      -4.231   1.845   0.000  1.00  0.00     0.014 A 
ATOM     20  C   UNL     1      -2.929   1.100   0.000  1.00  0.00     0.050 A 
ATOM     21  C   UNL     1      -1.633   1.855   0.000  1.00  0.00     0.201 A 
ATOM     22  O   UNL     1      -1.639   3.355   0.000  1.00  0.00    -0.288 OA
ENDROOT
BRANCH   1  23
ATOM     23  O   UNL     1       0.983  -2.635   0.000  1.00  0.00    -0.491 OA
ATOM     24  C   UNL     1      -0.313  -3.390   0.000  1.00  0.00     0.278 C 
ENDBRANCH   1  23
BRANCH  10  25
ATOM     25  O   UNL     1       0.960   3.365   0.000  1.00  0.00    -0.506 OA
ATOM     26  H   UNL     1       0.000   0.000   0.000  1.00  0.00     0.293 HD
ENDBRANCH  10  25
BRANCH  16  27
ATOM     27  O   UNL     1      -4.213  -2.655   0.000  1.00  0.00    -0.506 OA
ATOM     28  H   UNL     1       0.000   0.000   0.000  1.00  0.00     0.293 HD
ENDBRANCH  16  27
TORSDOF 3
