REMARK SMILES C[C@@H](C[C@@H](O)[C@@H]1OC1(C)C)[C@@H]1CC[C@]2(C)C3=CC[C@H]4C(C)(C)C(=O)CC[C@]4(C)[C@H]3CC[C@@]12C
REMARK SMILES IDX 3 1 2 2 1 3 11 4 12 5 32 6 13 7 31 8 14 9 30 10 16 11 29 12
REMARK SMILES IDX 17 13 27 14 18 15 26 16 19 17 25 18 20 19 23 20 33 21 15 22
REMARK SMILES IDX 28 23 21 24 22 25 24 26 4 27 5 28 6 30 7 31 8 32 9 33 10 34
REMARK H PARENT 5 29
ROOT
ATOM      1  C   UNL     1       3.823  -0.356   0.000  1.00  0.00     0.038 C 
ENDROOT
BRANCH   1   2
ATOM      2  C   UNL     1       3.433  -1.805   0.000  1.00  0.00    -0.008 C 
ATOM      3  C   UNL     1       4.493  -2.867   0.000  1.00  0.00     0.008 C 
BRANCH   2   4
ATOM      4  C   UNL     1       1.984  -2.191   0.000  1.00  0.00    -0.001 C 
ATOM      5  C   UNL     1       1.445  -3.591   0.000  1.00  0.00     0.005 C 
ATOM      6  C   UNL     1       0.820  -1.246   0.000  1.00  0.00    -0.020 C 
ATOM      7  C   UNL     1      -0.053  -3.511   0.000  1.00  0.00     0.012 C 
ATOM      8  C   UNL     1       0.743   0.252   0.000  1.00  0.00     0.008 C 
ATOM      9  C   UNL     1      -0.439  -2.061   0.000  1.00  0.00    -0.006 C 
ATOM     10  C   UNL     1      -0.593   0.935   0.000  1.00  0.00     0.009 C 
ATOM     11  C   UNL     1      -1.775  -1.379   0.000  1.00  0.00    -0.064 C 
ATOM     12  C   UNL     1      -1.852   0.119   0.000  1.00  0.00     0.021 C 
ATOM     13  C   UNL     1      -3.034  -2.194   0.000  1.00  0.00    -0.027 C 
ATOM     14  C   UNL     1      -3.188   0.802   0.000  1.00  0.00    -0.022 C 
ATOM     15  C   UNL     1      -4.370  -1.512   0.000  1.00  0.00     0.032 C 
ATOM     16  C   UNL     1      -3.264   2.300   0.000  1.00  0.00     0.015 C 
ATOM     17  C   UNL     1      -4.447  -0.014   0.000  1.00  0.00     0.012 C 
ATOM     18  C   UNL     1      -4.600   2.982   0.000  1.00  0.00     0.077 C 
ATOM     19  C   UNL     1      -5.782   0.669   0.000  1.00  0.00     0.027 C 
ATOM     20  C   UNL     1      -5.859   2.167   0.000  1.00  0.00     0.138 C 
ATOM     21  C   UNL     1       2.157  -0.567   0.000  1.00  0.00     0.012 C 
ATOM     22  C   UNL     1      -1.606  -3.004   0.000  1.00  0.00     0.017 C 
ATOM     23  C   UNL     1      -1.929   1.617   0.000  1.00  0.00     0.012 C 
ATOM     24  C   UNL     1      -7.271   0.853   0.000  1.00  0.00     0.020 C 
ATOM     25  C   UNL     1      -6.223  -0.765   0.000  1.00  0.00     0.020 C 
ATOM     26  O   UNL     1      -7.195   2.849   0.000  1.00  0.00    -0.299 OA
ENDBRANCH   2   4
ENDBRANCH   1   2
BRANCH   1  27
ATOM     27  C   UNL     1       5.273   0.030   0.000  1.00  0.00     0.146 C 
BRANCH  27  28
ATOM     28  O   UNL     1       6.332  -1.032   0.000  1.00  0.00    -0.390 OA
ATOM     29  H   UNL     1       0.000   0.000   0.000  1.00  0.00     0.211 HD
ENDBRANCH  27  28
BRANCH  27  30
ATOM     30  C   UNL     1       5.663   1.479   0.000  1.00  0.00     0.179 C 
ATOM     31  O   UNL     1       5.276   2.928   0.000  1.00  0.00    -0.364 OA
ATOM     32  C   UNL     1       6.725   2.538   0.000  1.00  0.00     0.092 C 
ATOM     33  C   UNL     1       7.360   3.897   0.000  1.00  0.00     0.045 C 
ATOM     34  C   UNL     1       7.952   1.676   0.000  1.00  0.00     0.045 C 
ENDBRANCH  27  30
ENDBRANCH   1  27
TORSDOF 5
