REMARK SMILES COc1ccc([C@H]2c3cc(OC)c(OC)cc3C[C@@H](CO)[C@@H]2CO)cc1OC
REMARK SMILES IDX 7 1 8 2 9 3 10 4 13 5 16 6 17 7 18 8 19 9 22 10 6 11 3 12
REMARK SMILES IDX 4 13 26 14 5 15 25 16 2 17 1 18 27 19 28 20 23 21 24 22
REMARK SMILES IDX 20 24 21 25 11 27 12 28 14 29 15 30
REMARK H PARENT 24 23 21 26
ROOT
ATOM      1  C   UNL     1       0.111   1.101   0.000  1.00  0.00     0.055 C 
ATOM      2  C   UNL     1       1.208   0.079   0.000  1.00  0.00    -0.033 A 
ATOM      3  C   UNL     1       0.872  -1.383   0.000  1.00  0.00     0.055 A 
ATOM      4  C   UNL     1       1.969  -2.405   0.000  1.00  0.00     0.161 A 
ATOM      5  C   UNL     1       3.403  -1.966   0.000  1.00  0.00     0.161 A 
ATOM      6  C   UNL     1       3.740  -0.505   0.000  1.00  0.00     0.054 A 
ATOM      7  C   UNL     1       2.643   0.518   0.000  1.00  0.00    -0.040 A 
ATOM      8  C   UNL     1       2.980   1.980   0.000  1.00  0.00     0.042 C 
ATOM      9  C   UNL     1       1.882   3.002   0.000  1.00  0.00     0.025 C 
ATOM     10  C   UNL     1       0.448   2.563   0.000  1.00  0.00     0.032 C 
ENDROOT
BRANCH   1  11
ATOM     11  C   UNL     1      -1.323   0.662   0.000  1.00  0.00    -0.036 A 
ATOM     12  C   UNL     1      -4.192  -0.216   0.000  1.00  0.00     0.160 A 
ATOM     13  C   UNL     1      -3.855   1.246   0.000  1.00  0.00     0.051 A 
ATOM     14  C   UNL     1      -3.094  -1.238   0.000  1.00  0.00     0.161 A 
ATOM     15  C   UNL     1      -2.421   1.685   0.000  1.00  0.00     0.008 A 
ATOM     16  C   UNL     1      -1.660  -0.799   0.000  1.00  0.00     0.054 A 
BRANCH  12  17
ATOM     17  O   UNL     1      -5.626  -0.655   0.000  1.00  0.00    -0.493 OA
ATOM     18  C   UNL     1      -6.724   0.368   0.000  1.00  0.00     0.278 C 
ENDBRANCH  12  17
BRANCH  14  19
ATOM     19  O   UNL     1      -3.431  -2.700   0.000  1.00  0.00    -0.493 OA
ATOM     20  C   UNL     1      -2.334  -3.723   0.000  1.00  0.00     0.278 C 
ENDBRANCH  14  19
ENDBRANCH   1  11
BRANCH  10  21
ATOM     21  C   UNL     1      -0.649   3.586   0.000  1.00  0.00     0.161 C 
BRANCH  21  22
ATOM     22  O   UNL     1      -0.313   5.047   0.000  1.00  0.00    -0.396 OA
ATOM     23  H   UNL     1       0.000   0.000   0.000  1.00  0.00     0.210 HD
ENDBRANCH  21  22
ENDBRANCH  10  21
BRANCH   9  24
ATOM     24  C   UNL     1       2.219   4.464   0.000  1.00  0.00     0.160 C 
BRANCH  24  25
ATOM     25  O   UNL     1       3.653   4.903   0.000  1.00  0.00    -0.396 OA
ATOM     26  H   UNL     1       0.000   0.000   0.000  1.00  0.00     0.210 HD
ENDBRANCH  24  25
ENDBRANCH   9  24
BRANCH   4  27
ATOM     27  O   UNL     1       1.632  -3.867   0.000  1.00  0.00    -0.493 OA
ATOM     28  C   UNL     1       0.198  -4.306   0.000  1.00  0.00     0.278 C 
ENDBRANCH   4  27
BRANCH   5  29
ATOM     29  O   UNL     1       4.501  -2.989   0.000  1.00  0.00    -0.493 OA
ATOM     30  C   UNL     1       4.164  -4.451   0.000  1.00  0.00     0.278 C 
ENDBRANCH   5  29
TORSDOF 9
