REMARK SMILES C=C/C(C)=C/C[C@]1(C)[C@H]2C[C@H](O)C=C3[C@H](OC(C)=O)O[C@@H](OC(C)=O)[C@@]32[C@H](OC(=O)/C=C/c2ccccc2)C[C@@H]1C
REMARK SMILES IDX 7 1 8 2 9 3 10 4 11 5 13 6 14 7 15 8 20 9 21 10 26 11 27 12
REMARK SMILES IDX 39 13 40 14 41 15 6 16 5 17 3 18 4 19 2 20 1 21 12 22 22 24
REMARK SMILES IDX 23 25 24 26 25 27 28 28 29 29 30 30 31 31 32 32 33 33 34 34
REMARK SMILES IDX 38 35 35 36 37 37 36 38 16 39 17 40 18 41 19 42
REMARK H PARENT 12 23
ROOT
ATOM      1  C   UNL     1       2.623  -0.793   0.000  1.00  0.00    -0.022 C 
ATOM      2  C   UNL     1       4.158  -2.204   0.000  1.00  0.00     0.012 C 
ATOM      3  C   UNL     1       2.913   0.475   0.000  1.00  0.00     0.019 C 
ATOM      4  C   UNL     1       3.974   1.534   0.000  1.00  0.00     0.041 C 
ATOM      5  C   UNL     1       3.588   2.984   0.000  1.00  0.00     0.137 C 
ATOM      6  C   UNL     1       2.139   3.373   0.000  1.00  0.00     0.011 C 
ATOM      7  C   UNL     1       1.077   2.314   0.000  1.00  0.00     0.013 C 
ATOM      8  C   UNL     1      -0.420   2.394   0.000  1.00  0.00     0.343 C 
ATOM      9  O   UNL     1      -0.959   0.994   0.000  1.00  0.00    -0.298 OA
ATOM     10  C   UNL     1       0.205   0.049   0.000  1.00  0.00     0.328 C 
ATOM     11  C   UNL     1       1.464   0.865   0.000  1.00  0.00     0.100 C 
ATOM     12  C   UNL     1       1.078  -0.377   0.000  1.00  0.00     0.194 C 
ATOM     13  C   UNL     1       1.284  -1.150   0.000  1.00  0.00     0.050 C 
ATOM     14  C   UNL     1       2.057  -1.358   0.000  1.00  0.00    -0.004 C 
ATOM     15  C   UNL     1       2.624  -3.483   0.000  1.00  0.00     0.008 C 
ENDROOT
BRANCH   1  16
ATOM     16  C   UNL     1       4.659  -0.342   0.000  1.00  0.00     0.035 C 
BRANCH  16  17
ATOM     17  C   UNL     1       5.887  -1.204   0.000  1.00  0.00    -0.023 C 
BRANCH  17  18
ATOM     18  C   UNL     1       7.247  -0.571   0.000  1.00  0.00    -0.056 C 
ATOM     19  C   UNL     1       7.380   0.923   0.000  1.00  0.00     0.044 C 
BRANCH  18  20
ATOM     20  C   UNL     1       8.475  -1.433   0.000  1.00  0.00    -0.005 C 
ATOM     21  C   UNL     1       8.343  -2.927   0.000  1.00  0.00     0.009 C 
ENDBRANCH  18  20
ENDBRANCH  17  18
ENDBRANCH  16  17
ENDBRANCH   1  16
BRANCH   5  22
ATOM     22  O   UNL     1       4.650   4.043   0.000  1.00  0.00    -0.389 OA
ATOM     23  H   UNL     1       0.000   0.000   0.000  1.00  0.00     0.211 HD
ENDBRANCH   5  22
BRANCH  10  24
ATOM     24  O   UNL     1       0.125  -1.449   0.000  1.00  0.00    -0.435 OA
BRANCH  24  25
ATOM     25  C   UNL     1      -1.212  -2.128   0.000  1.00  0.00     0.304 C 
ATOM     26  C   UNL     1      -1.292  -3.626   0.000  1.00  0.00     0.139 C 
ATOM     27  O   UNL     1      -2.630  -1.639   0.000  1.00  0.00    -0.253 OA
ENDBRANCH  24  25
ENDBRANCH  10  24
BRANCH  12  28
ATOM     28  O   UNL     1      -1.046   0.195   0.000  1.00  0.00    -0.458 OA
BRANCH  28  29
ATOM     29  C   UNL     1      -2.108  -0.865   0.000  1.00  0.00     0.331 C 
ATOM     30  O   UNL     1      -2.083  -2.364   0.000  1.00  0.00    -0.247 OA
BRANCH  29  31
ATOM     31  C   UNL     1      -3.556  -0.475   0.000  1.00  0.00     0.094 C 
BRANCH  31  32
ATOM     32  C   UNL     1      -4.618  -1.534   0.000  1.00  0.00     0.015 C 
BRANCH  32  33
ATOM     33  C   UNL     1      -6.067  -1.144   0.000  1.00  0.00    -0.025 A 
ATOM     34  C   UNL     1      -6.453   0.305   0.000  1.00  0.00     0.008 A 
ATOM     35  C   UNL     1      -7.128  -2.204   0.000  1.00  0.00     0.008 A 
ATOM     36  C   UNL     1      -7.902   0.695   0.000  1.00  0.00     0.001 A 
ATOM     37  C   UNL     1      -8.577  -1.814   0.000  1.00  0.00     0.001 A 
ATOM     38  C   UNL     1      -8.964  -0.365   0.000  1.00  0.00     0.000 A 
ENDBRANCH  32  33
ENDBRANCH  31  32
ENDBRANCH  29  31
ENDBRANCH  28  29
ENDBRANCH  12  28
BRANCH   8  39
ATOM     39  O   UNL     1      -1.236   3.653   0.000  1.00  0.00    -0.432 OA
BRANCH  39  40
ATOM     40  C   UNL     1      -2.734   3.576   0.000  1.00  0.00     0.305 C 
ATOM     41  C   UNL     1      -3.550   4.835   0.000  1.00  0.00     0.139 C 
ATOM     42  O   UNL     1      -3.416   2.240   0.000  1.00  0.00    -0.253 OA
ENDBRANCH  39  40
ENDBRANCH   8  39
TORSDOF 14
