REMARK SMILES COc1cc(O)c(C)cc1CCCc1cc2c(cc1O)OCO2
REMARK SMILES IDX 12 1 11 2 10 3 3 4 4 5 5 6 9 7 7 8 8 9 2 10 1 11 6 12 13 14
REMARK SMILES IDX 14 15 15 16 19 17 16 18 18 19 17 20 23 21 21 22 22 23 20 24
REMARK H PARENT 6 13 20 25
ROOT
ATOM      1  C   UNL     1       0.129   0.551   0.000  1.00  0.00     0.010 C 
ENDROOT
BRANCH   1   2
ATOM      2  C   UNL     1       1.451   1.259   0.000  1.00  0.00     0.040 C 
BRANCH   2   3
ATOM      3  C   UNL     1       2.726   0.469   0.000  1.00  0.00    -0.005 A 
ATOM      4  C   UNL     1       4.048   1.178   0.000  1.00  0.00     0.125 A 
ATOM      5  C   UNL     1       5.322   0.387   0.000  1.00  0.00     0.093 A 
ATOM      6  C   UNL     1       5.275  -1.112   0.000  1.00  0.00     0.122 A 
ATOM      7  C   UNL     1       2.678  -1.030   0.000  1.00  0.00     0.014 A 
ATOM      8  C   UNL     1       3.953  -1.821   0.000  1.00  0.00    -0.009 A 
ATOM      9  C   UNL     1       3.906  -3.320   0.000  1.00  0.00     0.048 C 
BRANCH   4  10
ATOM     10  O   UNL     1       4.095   2.677   0.000  1.00  0.00    -0.496 OA
ATOM     11  C   UNL     1       5.417   3.386   0.000  1.00  0.00     0.278 C 
ENDBRANCH   4  10
BRANCH   6  12
ATOM     12  O   UNL     1       6.550  -1.903   0.000  1.00  0.00    -0.508 OA
ATOM     13  H   UNL     1       0.000   0.000   0.000  1.00  0.00     0.293 HD
ENDBRANCH   6  12
ENDBRANCH   2   3
ENDBRANCH   1   2
BRANCH   1  14
ATOM     14  C   UNL     1      -1.146   1.341   0.000  1.00  0.00     0.040 C 
BRANCH  14  15
ATOM     15  C   UNL     1      -2.468   0.632   0.000  1.00  0.00    -0.002 A 
ATOM     16  C   UNL     1      -3.743   1.423   0.000  1.00  0.00     0.058 A 
ATOM     17  C   UNL     1      -2.515  -0.867   0.000  1.00  0.00     0.122 A 
ATOM     18  C   UNL     1      -5.065   0.714   0.000  1.00  0.00     0.166 A 
ATOM     19  C   UNL     1      -3.837  -1.576   0.000  1.00  0.00     0.097 A 
ATOM     20  C   UNL     1      -5.112  -0.785   0.000  1.00  0.00     0.169 A 
ATOM     21  O   UNL     1      -6.476   1.222   0.000  1.00  0.00    -0.454 OA
ATOM     22  O   UNL     1      -6.552  -1.204   0.000  1.00  0.00    -0.453 OA
ATOM     23  C   UNL     1      -7.396   0.037   0.000  1.00  0.00     0.468 C 
BRANCH  17  24
ATOM     24  O   UNL     1      -1.240  -1.657   0.000  1.00  0.00    -0.508 OA
ATOM     25  H   UNL     1       0.000   0.000   0.000  1.00  0.00     0.293 HD
ENDBRANCH  17  24
ENDBRANCH  14  15
ENDBRANCH   1  14
TORSDOF 7
