REMARK SMILES COc1cc2c(c(O)c1OC)N(C(C)=O)[C@@H]1CC[C@@]34CCCN5CC[C@@]21[C@]53OCC4
REMARK SMILES IDX 3 1 4 2 5 3 6 4 7 5 9 6 12 7 16 8 17 9 18 10 19 11 20 12
REMARK SMILES IDX 21 13 22 14 23 15 24 16 25 17 26 18 27 19 28 20 29 21 30 22
REMARK SMILES IDX 2 23 1 24 10 25 11 26 8 27 13 29 14 30 15 31
REMARK H PARENT 8 28
ROOT
ATOM      1  C   UNL     1       2.727  -1.650   0.000  1.00  0.00     0.165 A 
ATOM      2  C   UNL     1       1.231  -1.540   0.000  1.00  0.00     0.057 A 
ATOM      3  C   UNL     1       0.579  -0.189   0.000  1.00  0.00    -0.004 A 
ATOM      4  C   UNL     1       1.422   1.051   0.000  1.00  0.00     0.094 A 
ATOM      5  C   UNL     1       2.918   0.941   0.000  1.00  0.00     0.186 A 
ATOM      6  C   UNL     1       3.571  -0.410   0.000  1.00  0.00     0.205 A 
ATOM      7  N   UNL     1       0.504   2.237   0.000  1.00  0.00    -0.305 N 
ATOM      8  C   UNL     1      -0.908   1.730   0.000  1.00  0.00     0.106 C 
ATOM      9  C   UNL     1      -2.230   2.439   0.000  1.00  0.00     0.027 C 
ATOM     10  C   UNL     1      -3.505   1.649   0.000  1.00  0.00     0.014 C 
ATOM     11  C   UNL     1      -3.458   0.150   0.000  1.00  0.00     0.016 C 
ATOM     12  C   UNL     1      -4.734  -0.640   0.000  1.00  0.00     0.013 C 
ATOM     13  C   UNL     1      -4.687  -2.139   0.000  1.00  0.00     0.016 C 
ATOM     14  C   UNL     1      -3.365  -2.849   0.000  1.00  0.00     0.087 C 
ATOM     15  N   UNL     1      -2.090  -2.059   0.000  1.00  0.00    -0.274 NA
ATOM     16  C   UNL     1      -0.614  -2.325   0.000  1.00  0.00     0.088 C 
ATOM     17  C   UNL     1       0.095  -1.004   0.000  1.00  0.00     0.034 C 
ATOM     18  C   UNL     1      -0.862   0.230   0.000  1.00  0.00     0.063 C 
ATOM     19  C   UNL     1      -2.137  -0.560   0.000  1.00  0.00     0.139 C 
ATOM     20  O   UNL     1      -2.275  -0.024   0.000  1.00  0.00    -0.359 OA
ATOM     21  C   UNL     1      -2.896  -0.388   0.000  1.00  0.00     0.163 C 
ATOM     22  C   UNL     1      -2.936   0.331   0.000  1.00  0.00     0.040 C 
ENDROOT
BRANCH   1  23
ATOM     23  O   UNL     1       3.379  -3.001   0.000  1.00  0.00    -0.493 OA
ATOM     24  C   UNL     1       2.535  -4.241   0.000  1.00  0.00     0.278 C 
ENDBRANCH   1  23
BRANCH   6  25
ATOM     25  O   UNL     1       5.066  -0.520   0.000  1.00  0.00    -0.490 OA
ATOM     26  C   UNL     1       5.719  -1.871   0.000  1.00  0.00     0.278 C 
ENDBRANCH   6  25
BRANCH   5  27
ATOM     27  O   UNL     1       3.762   2.181   0.000  1.00  0.00    -0.503 OA
ATOM     28  H   UNL     1       0.000   0.000   0.000  1.00  0.00     0.293 HD
ENDBRANCH   5  27
BRANCH   7  29
ATOM     29  C   UNL     1       0.923   3.677   0.000  1.00  0.00     0.224 C 
ATOM     30  C   UNL     1      -0.115   4.760   0.000  1.00  0.00     0.115 C 
ATOM     31  O   UNL     1       2.380   4.034   0.000  1.00  0.00    -0.275 OA
ENDBRANCH   7  29
TORSDOF 4
