REMARK SMILES C=CC[C@]12CC=CC(=O)[C@@]1(O)O[C@@H](OCc1ccc(OC)c(OC)c1)[C@H]2C
REMARK SMILES IDX 14 1 13 2 4 3 5 4 10 5 26 6 6 7 8 8 12 9 7 10 27 11 9 12
REMARK SMILES IDX 3 13 2 14 1 15 11 16 15 18 16 19 17 20 25 21 18 22 22 23
REMARK SMILES IDX 19 24 23 25 24 26 20 27 21 28
REMARK H PARENT 11 17
ROOT
ATOM      1  O   UNL     1      -0.486  -0.142   0.000  1.00  0.00    -0.348 OA
ENDROOT
BRANCH   1   2
ATOM      2  C   UNL     1       0.995   0.095   0.000  1.00  0.00     0.258 C 
ATOM      3  C   UNL     1       3.393  -0.282   0.000  1.00  0.00     0.047 C 
ATOM      4  C   UNL     1       4.794  -0.817   0.000  1.00  0.00     0.041 C 
ATOM      5  C   UNL     1       3.156   1.200   0.000  1.00  0.00     0.239 C 
ATOM      6  C   UNL     1       2.057  -0.965   0.000  1.00  0.00     0.055 C 
ATOM      7  C   UNL     1       5.959   0.128   0.000  1.00  0.00    -0.022 C 
ATOM      8  C   UNL     1       4.321   2.145   0.000  1.00  0.00     0.215 C 
ATOM      9  O   UNL     1       1.675   1.432   0.000  1.00  0.00    -0.313 OA
ATOM     10  C   UNL     1       5.722   1.609   0.000  1.00  0.00     0.049 C 
ATOM     11  C   UNL     1       1.825  -2.446   0.000  1.00  0.00     0.014 C 
ATOM     12  O   UNL     1       4.084   3.626   0.000  1.00  0.00    -0.289 OA
BRANCH   3  13
ATOM     13  C   UNL     1       3.474  -1.780   0.000  1.00  0.00     0.040 C 
BRANCH  13  14
ATOM     14  C   UNL     1       4.811  -2.459   0.000  1.00  0.00    -0.034 C 
ATOM     15  C   UNL     1       4.891  -3.957   0.000  1.00  0.00     0.004 C 
ENDBRANCH  13  14
ENDBRANCH   3  13
BRANCH   5  16
ATOM     16  O   UNL     1       2.766   2.648   0.000  1.00  0.00    -0.359 OA
ATOM     17  H   UNL     1       0.000   0.000   0.000  1.00  0.00     0.214 HD
ENDBRANCH   5  16
ENDBRANCH   1   2
BRANCH   1  18
ATOM     18  C   UNL     1      -1.431   1.022   0.000  1.00  0.00     0.199 C 
BRANCH  18  19
ATOM     19  C   UNL     1      -2.913   0.786   0.000  1.00  0.00    -0.018 A 
ATOM     20  C   UNL     1      -3.858   1.950   0.000  1.00  0.00     0.010 A 
ATOM     21  C   UNL     1      -3.448  -0.615   0.000  1.00  0.00     0.056 A 
ATOM     22  C   UNL     1      -5.339   1.714   0.000  1.00  0.00     0.051 A 
ATOM     23  C   UNL     1      -4.929  -0.852   0.000  1.00  0.00     0.161 A 
ATOM     24  C   UNL     1      -5.875   0.312   0.000  1.00  0.00     0.160 A 
BRANCH  23  25
ATOM     25  O   UNL     1      -5.465  -2.253   0.000  1.00  0.00    -0.493 OA
ATOM     26  C   UNL     1      -4.520  -3.417   0.000  1.00  0.00     0.278 C 
ENDBRANCH  23  25
BRANCH  24  27
ATOM     27  O   UNL     1      -7.356   0.076   0.000  1.00  0.00    -0.493 OA
ATOM     28  C   UNL     1      -8.302   1.240   0.000  1.00  0.00     0.278 C 
ENDBRANCH  24  27
ENDBRANCH  18  19
ENDBRANCH   1  18
TORSDOF 8
