REMARK SMILES CO[C@H]1C(=O)c2c(O)c3c(c(CC=C(C)C)c2O[C@@H]1c1ccccc1O)OC(C)(C)C=C3
REMARK SMILES IDX 3 1 4 2 5 3 6 4 7 5 9 6 10 7 27 8 28 9 29 10 30 11 31 12
REMARK SMILES IDX 32 13 11 14 17 15 18 16 19 17 2 18 1 19 20 20 21 21 25 22
REMARK SMILES IDX 22 23 24 24 23 25 26 26 8 28 12 30 13 31 14 32 15 33 16 34
REMARK H PARENT 26 27 8 29
ROOT
ATOM      1  C   UNL     1      -2.006   2.111   0.000  1.00  0.00     0.235 C 
ATOM      2  C   UNL     1      -0.611   2.662   0.000  1.00  0.00     0.203 C 
ATOM      3  O   UNL     1      -0.391   4.146   0.000  1.00  0.00    -0.291 OA
ATOM      4  C   UNL     1       0.563   1.730   0.000  1.00  0.00     0.105 A 
ATOM      5  C   UNL     1       1.959   2.281   0.000  1.00  0.00     0.141 A 
ATOM      6  C   UNL     1       3.133   1.348   0.000  1.00  0.00     0.060 A 
ATOM      7  C   UNL     1       2.913  -0.136   0.000  1.00  0.00     0.138 A 
ATOM      8  O   UNL     1       4.088  -1.069   0.000  1.00  0.00    -0.483 OA
ATOM      9  C   UNL     1       5.483  -0.517   0.000  1.00  0.00     0.122 C 
ATOM     10  C   UNL     1       6.982  -0.477   0.000  1.00  0.00     0.061 C 
ATOM     11  C   UNL     1       5.783  -1.987   0.000  1.00  0.00     0.061 C 
ATOM     12  C   UNL     1       5.703   0.966   0.000  1.00  0.00     0.021 C 
ATOM     13  C   UNL     1       4.528   1.899   0.000  1.00  0.00     0.015 C 
ATOM     14  C   UNL     1       1.518  -0.687   0.000  1.00  0.00     0.042 A 
ATOM     15  C   UNL     1       0.343   0.246   0.000  1.00  0.00     0.142 A 
ATOM     16  O   UNL     1      -1.052  -0.305   0.000  1.00  0.00    -0.481 OA
ATOM     17  C   UNL     1      -2.227   0.628   0.000  1.00  0.00     0.244 C 
ENDROOT
BRANCH   1  18
ATOM     18  O   UNL     1      -3.181   3.044   0.000  1.00  0.00    -0.369 OA
ATOM     19  C   UNL     1      -2.961   4.528   0.000  1.00  0.00     0.196 C 
ENDBRANCH   1  18
BRANCH  17  20
ATOM     20  C   UNL     1      -3.622   0.077   0.000  1.00  0.00     0.037 A 
ATOM     21  C   UNL     1      -4.797   1.010   0.000  1.00  0.00     0.011 A 
ATOM     22  C   UNL     1      -3.842  -1.407   0.000  1.00  0.00     0.122 A 
ATOM     23  C   UNL     1      -6.192   0.459   0.000  1.00  0.00     0.001 A 
ATOM     24  C   UNL     1      -5.237  -1.958   0.000  1.00  0.00     0.046 A 
ATOM     25  C   UNL     1      -6.412  -1.025   0.000  1.00  0.00     0.004 A 
BRANCH  22  26
ATOM     26  O   UNL     1      -2.668  -2.340   0.000  1.00  0.00    -0.508 OA
ATOM     27  H   UNL     1       0.000   0.000   0.000  1.00  0.00     0.293 HD
ENDBRANCH  22  26
ENDBRANCH  17  20
BRANCH   5  28
ATOM     28  O   UNL     1       2.179   3.764   0.000  1.00  0.00    -0.506 OA
ATOM     29  H   UNL     1       0.000   0.000   0.000  1.00  0.00     0.293 HD
ENDBRANCH   5  28
BRANCH  14  30
ATOM     30  C   UNL     1       1.297  -2.171   0.000  1.00  0.00     0.070 C 
BRANCH  30  31
ATOM     31  C   UNL     1      -0.098  -2.721   0.000  1.00  0.00    -0.023 C 
BRANCH  31  32
ATOM     32  C   UNL     1      -0.318  -4.205   0.000  1.00  0.00    -0.080 C 
ATOM     33  C   UNL     1      -1.713  -4.756   0.000  1.00  0.00     0.039 C 
ATOM     34  C   UNL     1       0.857  -5.138   0.000  1.00  0.00     0.039 C 
ENDBRANCH  31  32
ENDBRANCH  30  31
ENDBRANCH  14  30
TORSDOF 7
