REMARK SMILES COc1ccc(-c2cc(=O)c3c(OC)c(OC)c(OC)cc3o2)cc1
REMARK SMILES IDX 7 1 8 2 9 3 10 4 11 5 12 6 15 7 18 8 21 9 22 10 23 11 6 12
REMARK SMILES IDX 3 13 4 14 25 15 5 16 24 17 2 18 1 19 13 20 14 21 19 22 20 23
REMARK SMILES IDX 16 24 17 25
REMARK H PARENT
ROOT
ATOM      1  C   UNL     1      -1.505  -0.340   0.000  1.00  0.00     0.138 A 
ATOM      2  C   UNL     1      -0.869  -1.699   0.000  1.00  0.00     0.100 A 
ATOM      3  C   UNL     1       0.626  -1.827   0.000  1.00  0.00     0.197 A 
ATOM      4  O   UNL     1       1.262  -3.185   0.000  1.00  0.00    -0.289 OA
ATOM      5  C   UNL     1       1.484  -0.597   0.000  1.00  0.00     0.111 A 
ATOM      6  C   UNL     1       2.979  -0.725   0.000  1.00  0.00     0.179 A 
ATOM      7  C   UNL     1       3.837   0.505   0.000  1.00  0.00     0.204 A 
ATOM      8  C   UNL     1       3.201   1.863   0.000  1.00  0.00     0.168 A 
ATOM      9  C   UNL     1       1.707   1.992   0.000  1.00  0.00     0.098 A 
ATOM     10  C   UNL     1       0.848   0.762   0.000  1.00  0.00     0.146 A 
ATOM     11  O   UNL     1      -0.646   0.890   0.000  1.00  0.00    -0.456 OA
ENDROOT
BRANCH   1  12
ATOM     12  C   UNL     1      -2.999  -0.212   0.000  1.00  0.00     0.018 A 
ATOM     13  C   UNL     1      -5.988   0.045   0.000  1.00  0.00     0.118 A 
ATOM     14  C   UNL     1      -5.130   1.275   0.000  1.00  0.00     0.047 A 
ATOM     15  C   UNL     1      -5.352  -1.313   0.000  1.00  0.00     0.047 A 
ATOM     16  C   UNL     1      -3.635   1.147   0.000  1.00  0.00     0.016 A 
ATOM     17  C   UNL     1      -3.858  -1.442   0.000  1.00  0.00     0.016 A 
BRANCH  13  18
ATOM     18  O   UNL     1      -7.483   0.173   0.000  1.00  0.00    -0.497 OA
ATOM     19  C   UNL     1      -8.119   1.532   0.000  1.00  0.00     0.278 C 
ENDBRANCH  13  18
ENDBRANCH   1  12
BRANCH   6  20
ATOM     20  O   UNL     1       3.615  -2.084   0.000  1.00  0.00    -0.492 OA
ATOM     21  C   UNL     1       5.109  -2.212   0.000  1.00  0.00     0.278 C 
ENDBRANCH   6  20
BRANCH   8  22
ATOM     22  O   UNL     1       4.060   3.093   0.000  1.00  0.00    -0.493 OA
ATOM     23  C   UNL     1       5.554   2.965   0.000  1.00  0.00     0.278 C 
ENDBRANCH   8  22
BRANCH   7  24
ATOM     24  O   UNL     1       5.332   0.376   0.000  1.00  0.00    -0.490 OA
ATOM     25  C   UNL     1       5.968  -0.982   0.000  1.00  0.00     0.278 C 
ENDBRANCH   7  24
TORSDOF 5
