REMARK SMILES CC1=C2C[C@H]3CC[C@@H](C)[C@]2(CC1)C3(C)C
REMARK SMILES IDX 1 1 2 2 3 3 4 4 5 5 6 6 7 7 8 8 9 9 10 10 11 11 12 12 13 13
REMARK SMILES IDX 14 14 15 15
REMARK H PARENT
ROOT
ATOM      1  C   UNL     1      -4.034  -0.665   0.000  1.00  0.00     0.039 C 
ATOM      2  C   UNL     1      -2.680  -0.019   0.000  1.00  0.00    -0.073 C 
ATOM      3  C   UNL     1      -1.361  -0.735   0.000  1.00  0.00    -0.064 C 
ATOM      4  C   UNL     1      -0.716  -2.088   0.000  1.00  0.00     0.035 C 
ATOM      5  C   UNL     1       0.772  -1.893   0.000  1.00  0.00    -0.000 C 
ATOM      6  C   UNL     1       2.199  -1.401   0.000  1.00  0.00     0.005 C 
ATOM      7  C   UNL     1       2.317   0.094   0.000  1.00  0.00     0.004 C 
ATOM      8  C   UNL     1       1.080   0.944   0.000  1.00  0.00    -0.003 C 
ATOM      9  C   UNL     1       1.198   2.439   0.000  1.00  0.00     0.008 C 
ATOM     10  C   UNL     1      -0.273   0.298   0.000  1.00  0.00    -0.000 C 
ATOM     11  C   UNL     1      -0.919   1.652   0.000  1.00  0.00     0.017 C 
ATOM     12  C   UNL     1      -2.406   1.456   0.000  1.00  0.00     0.031 C 
ATOM     13  C   UNL     1       1.045  -0.418   0.000  1.00  0.00    -0.023 C 
ATOM     14  C   UNL     1       1.841  -0.452   0.000  1.00  0.00     0.012 C 
ATOM     15  C   UNL     1       1.937   0.788   0.000  1.00  0.00     0.012 C 
ENDROOT
TORSDOF 0
