REMARK SMILES COc1cc([C@H]2c3cc(OC(C)=O)c(OC)cc3C[C@@H](COC(C)=O)[C@@H]2COC(C)=O)ccc1OC(C)=O
REMARK SMILES IDX 6 1 7 2 8 3 9 4 14 5 17 6 18 7 19 8 20 9 26 10 5 11 3 12
REMARK SMILES IDX 4 13 34 14 33 15 32 16 2 17 1 18 35 19 36 20 37 21 38 22
REMARK SMILES IDX 27 23 28 24 29 25 30 26 31 27 21 28 22 29 23 30 24 31 25 32
REMARK SMILES IDX 10 33 11 34 12 35 13 36 15 37 16 38
REMARK H PARENT
ROOT
ATOM      1  C   UNL     1      -0.330   0.227   0.000  1.00  0.00     0.057 C 
ATOM      2  C   UNL     1       0.043   1.680   0.000  1.00  0.00    -0.033 A 
ATOM      3  C   UNL     1       1.488   2.083   0.000  1.00  0.00     0.056 A 
ATOM      4  C   UNL     1       1.861   3.536   0.000  1.00  0.00     0.173 A 
ATOM      5  C   UNL     1       0.790   4.586   0.000  1.00  0.00     0.161 A 
ATOM      6  C   UNL     1      -0.655   4.183   0.000  1.00  0.00     0.054 A 
ATOM      7  C   UNL     1      -1.028   2.730   0.000  1.00  0.00    -0.040 A 
ATOM      8  C   UNL     1      -2.473   2.327   0.000  1.00  0.00     0.043 C 
ATOM      9  C   UNL     1      -2.846   0.874   0.000  1.00  0.00     0.039 C 
ATOM     10  C   UNL     1      -1.775  -0.176   0.000  1.00  0.00     0.046 C 
ENDROOT
BRANCH   1  11
ATOM     11  C   UNL     1       0.742  -0.822   0.000  1.00  0.00    -0.036 A 
ATOM     12  C   UNL     1       1.440  -3.325   0.000  1.00  0.00     0.161 A 
ATOM     13  C   UNL     1       0.368  -2.275   0.000  1.00  0.00     0.054 A 
ATOM     14  C   UNL     1       2.885  -2.922   0.000  1.00  0.00     0.172 A 
ATOM     15  C   UNL     1       3.258  -1.469   0.000  1.00  0.00     0.051 A 
ATOM     16  C   UNL     1       2.187  -0.419   0.000  1.00  0.00     0.008 A 
BRANCH  12  17
ATOM     17  O   UNL     1       1.067  -4.778   0.000  1.00  0.00    -0.493 OA
ATOM     18  C   UNL     1      -0.378  -5.181   0.000  1.00  0.00     0.278 C 
ENDBRANCH  12  17
BRANCH  14  19
ATOM     19  O   UNL     1       3.956  -3.971   0.000  1.00  0.00    -0.423 OA
BRANCH  19  20
ATOM     20  C   UNL     1       5.401  -3.568   0.000  1.00  0.00     0.308 C 
ATOM     21  C   UNL     1       6.473  -4.618   0.000  1.00  0.00     0.139 C 
ATOM     22  O   UNL     1       5.774  -2.115   0.000  1.00  0.00    -0.252 OA
ENDBRANCH  19  20
ENDBRANCH  14  19
ENDBRANCH   1  11
BRANCH  10  23
ATOM     23  C   UNL     1      -2.148  -1.629   0.000  1.00  0.00     0.237 C 
BRANCH  23  24
ATOM     24  O   UNL     1      -3.593  -2.032   0.000  1.00  0.00    -0.466 OA
BRANCH  24  25
ATOM     25  C   UNL     1      -3.966  -3.485   0.000  1.00  0.00     0.302 C 
ATOM     26  C   UNL     1      -5.411  -3.888   0.000  1.00  0.00     0.139 C 
ATOM     27  O   UNL     1      -2.894  -4.534   0.000  1.00  0.00    -0.253 OA
ENDBRANCH  24  25
ENDBRANCH  23  24
ENDBRANCH  10  23
BRANCH   9  28
ATOM     28  C   UNL     1      -4.291   0.471   0.000  1.00  0.00     0.237 C 
BRANCH  28  29
ATOM     29  O   UNL     1      -5.362   1.520   0.000  1.00  0.00    -0.466 OA
BRANCH  29  30
ATOM     30  C   UNL     1      -6.807   1.117   0.000  1.00  0.00     0.302 C 
ATOM     31  C   UNL     1      -7.879   2.167   0.000  1.00  0.00     0.139 C 
ATOM     32  O   UNL     1      -7.181  -0.336   0.000  1.00  0.00    -0.253 OA
ENDBRANCH  29  30
ENDBRANCH  28  29
ENDBRANCH   9  28
BRANCH   4  33
ATOM     33  O   UNL     1       3.306   3.939   0.000  1.00  0.00    -0.423 OA
BRANCH  33  34
ATOM     34  C   UNL     1       4.378   2.890   0.000  1.00  0.00     0.308 C 
ATOM     35  C   UNL     1       5.823   3.293   0.000  1.00  0.00     0.139 C 
ATOM     36  O   UNL     1       4.005   1.437   0.000  1.00  0.00    -0.252 OA
ENDBRANCH  33  34
ENDBRANCH   4  33
BRANCH   5  37
ATOM     37  O   UNL     1       1.163   6.039   0.000  1.00  0.00    -0.493 OA
ATOM     38  C   UNL     1       2.608   6.442   0.000  1.00  0.00     0.278 C 
ENDBRANCH   5  37
TORSDOF 13
