REMARK SMILES CC1(C)C=Cc2c(cc(O)c3c(=O)cc(-c4ccc(O)cc4)oc23)O1
REMARK SMILES IDX 1 1 2 2 3 3 4 4 5 5 6 6 7 7 8 8 9 9 11 10 24 11 23 12 15 13
REMARK SMILES IDX 14 14 12 15 13 16 25 17 10 18 16 20 17 21 22 22 18 23 21 24
REMARK SMILES IDX 19 25 20 26
REMARK H PARENT 10 19 20 27
ROOT
ATOM      1  C   UNL     1       5.977  -1.894   0.000  1.00  0.00     0.061 C 
ATOM      2  C   UNL     1       4.487  -2.071   0.000  1.00  0.00     0.122 C 
ATOM      3  C   UNL     1       4.920  -3.507   0.000  1.00  0.00     0.061 C 
ATOM      4  C   UNL     1       3.148  -2.746   0.000  1.00  0.00     0.021 C 
ATOM      5  C   UNL     1       1.893  -1.924   0.000  1.00  0.00     0.015 C 
ATOM      6  C   UNL     1       1.978  -0.426   0.000  1.00  0.00     0.060 A 
ATOM      7  C   UNL     1       3.317   0.249   0.000  1.00  0.00     0.135 A 
ATOM      8  C   UNL     1       3.402   1.746   0.000  1.00  0.00     0.094 A 
ATOM      9  C   UNL     1       2.147   2.569   0.000  1.00  0.00     0.134 A 
ATOM     10  C   UNL     1       0.808   1.893   0.000  1.00  0.00     0.107 A 
ATOM     11  C   UNL     1       0.723   0.396   0.000  1.00  0.00     0.153 A 
ATOM     12  O   UNL     1      -0.616  -0.280   0.000  1.00  0.00    -0.455 OA
ATOM     13  C   UNL     1      -1.871   0.542   0.000  1.00  0.00     0.138 A 
ATOM     14  C   UNL     1      -1.786   2.040   0.000  1.00  0.00     0.100 A 
ATOM     15  C   UNL     1      -0.447   2.716   0.000  1.00  0.00     0.197 A 
ATOM     16  O   UNL     1      -0.362   4.213   0.000  1.00  0.00    -0.289 OA
ATOM     17  O   UNL     1       4.572  -0.573   0.000  1.00  0.00    -0.483 OA
ENDROOT
BRANCH   9  18
ATOM     18  O   UNL     1       2.232   4.066   0.000  1.00  0.00    -0.507 OA
ATOM     19  H   UNL     1       0.000   0.000   0.000  1.00  0.00     0.293 HD
ENDBRANCH   9  18
BRANCH  13  20
ATOM     20  C   UNL     1      -3.210  -0.133   0.000  1.00  0.00     0.018 A 
ATOM     21  C   UNL     1      -4.465   0.689   0.000  1.00  0.00     0.016 A 
ATOM     22  C   UNL     1      -3.295  -1.630   0.000  1.00  0.00     0.016 A 
ATOM     23  C   UNL     1      -5.804   0.014   0.000  1.00  0.00     0.047 A 
ATOM     24  C   UNL     1      -4.634  -2.306   0.000  1.00  0.00     0.047 A 
ATOM     25  C   UNL     1      -5.889  -1.484   0.000  1.00  0.00     0.115 A 
BRANCH  25  26
ATOM     26  O   UNL     1      -7.228  -2.159   0.000  1.00  0.00    -0.508 OA
ATOM     27  H   UNL     1       0.000   0.000   0.000  1.00  0.00     0.293 HD
ENDBRANCH  25  26
ENDBRANCH  13  20
TORSDOF 3
