REMARK SMILES Oc1ccc(/C=C/c2cc(O)c3c(c2)O[C@H](c2ccc(O)cc2O)[C@H]3c2cc(O)cc(O)c2)cc1
REMARK SMILES IDX 7 1 6 2 5 3 2 4 3 5 35 6 4 7 34 8 1 9 8 11 9 12 14 13 10 14
REMARK SMILES IDX 13 15 12 16 15 17 25 18 16 19 11 20 26 22 27 23 33 24 28 25
REMARK SMILES IDX 31 26 30 27 29 28 32 30 17 32 18 33 23 34 19 35 22 36 20 37
REMARK SMILES IDX 24 38 21 40
REMARK H PARENT 1 10 11 21 29 29 32 31 24 39 21 41
ROOT
ATOM      1  C   UNL     1      -4.137   0.727   0.000  1.00  0.00     0.009 C 
ENDROOT
BRANCH   1   2
ATOM      2  C   UNL     1      -5.142  -0.387   0.000  1.00  0.00     0.009 C 
BRANCH   2   3
ATOM      3  C   UNL     1      -6.609  -0.073   0.000  1.00  0.00    -0.025 A 
ATOM      4  C   UNL     1      -9.543   0.553   0.000  1.00  0.00     0.115 A 
ATOM      5  C   UNL     1      -8.538   1.667   0.000  1.00  0.00     0.047 A 
ATOM      6  C   UNL     1      -9.081  -0.874   0.000  1.00  0.00     0.047 A 
ATOM      7  C   UNL     1      -7.071   1.354   0.000  1.00  0.00     0.012 A 
ATOM      8  C   UNL     1      -7.614  -1.187   0.000  1.00  0.00     0.012 A 
BRANCH   4   9
ATOM      9  O   UNL     1     -11.010   0.867   0.000  1.00  0.00    -0.508 OA
ATOM     10  H   UNL     1       0.000   0.000   0.000  1.00  0.00     0.293 HD
ENDBRANCH   4   9
ENDBRANCH   2   3
ENDBRANCH   1   2
BRANCH   1  11
ATOM     11  C   UNL     1      -2.671   0.413   0.000  1.00  0.00    -0.018 A 
ATOM     12  C   UNL     1      -2.209  -1.014   0.000  1.00  0.00     0.054 A 
ATOM     13  C   UNL     1      -1.665   1.527   0.000  1.00  0.00     0.055 A 
ATOM     14  C   UNL     1      -0.742  -1.327   0.000  1.00  0.00     0.123 A 
ATOM     15  C   UNL     1      -0.199   1.213   0.000  1.00  0.00     0.128 A 
ATOM     16  C   UNL     1       0.263  -0.214   0.000  1.00  0.00     0.047 A 
ATOM     17  O   UNL     1       1.016   2.094   0.000  1.00  0.00    -0.484 OA
ATOM     18  C   UNL     1       1.763  -0.216   0.000  1.00  0.00     0.103 C 
ATOM     19  C   UNL     1       2.228   1.210   0.000  1.00  0.00     0.219 C 
BRANCH  14  20
ATOM     20  O   UNL     1      -0.280  -2.755   0.000  1.00  0.00    -0.507 OA
ATOM     21  H   UNL     1       0.000   0.000   0.000  1.00  0.00     0.293 HD
ENDBRANCH  14  20
BRANCH  18  22
ATOM     22  C   UNL     1       2.644  -1.430   0.000  1.00  0.00    -0.029 A 
ATOM     23  C   UNL     1       2.032  -2.800   0.000  1.00  0.00     0.051 A 
ATOM     24  C   UNL     1       4.136  -1.275   0.000  1.00  0.00     0.051 A 
ATOM     25  C   UNL     1       2.912  -4.014   0.000  1.00  0.00     0.119 A 
ATOM     26  C   UNL     1       5.016  -2.490   0.000  1.00  0.00     0.119 A 
ATOM     27  C   UNL     1       4.404  -3.859   0.000  1.00  0.00     0.092 A 
BRANCH  25  28
ATOM     28  O   UNL     1       2.301  -5.384   0.000  1.00  0.00    -0.508 OA
ATOM     29  H   UNL     1       0.000   0.000   0.000  1.00  0.00     0.293 HD
ENDBRANCH  25  28
BRANCH  26  30
ATOM     30  O   UNL     1       6.508  -2.334   0.000  1.00  0.00    -0.508 OA
ATOM     31  H   UNL     1       0.000   0.000   0.000  1.00  0.00     0.293 HD
ENDBRANCH  26  30
ENDBRANCH  18  22
BRANCH  19  32
ATOM     32  C   UNL     1       3.655   1.672   0.000  1.00  0.00     0.035 A 
ATOM     33  C   UNL     1       4.769   0.667   0.000  1.00  0.00     0.015 A 
ATOM     34  C   UNL     1       3.969   3.139   0.000  1.00  0.00     0.126 A 
ATOM     35  C   UNL     1       6.196   1.129   0.000  1.00  0.00     0.047 A 
ATOM     36  C   UNL     1       5.396   3.601   0.000  1.00  0.00     0.092 A 
ATOM     37  C   UNL     1       6.510   2.596   0.000  1.00  0.00     0.119 A 
BRANCH  34  38
ATOM     38  O   UNL     1       2.855   4.144   0.000  1.00  0.00    -0.507 OA
ATOM     39  H   UNL     1       0.000   0.000   0.000  1.00  0.00     0.293 HD
ENDBRANCH  34  38
BRANCH  37  40
ATOM     40  O   UNL     1       7.937   3.058   0.000  1.00  0.00    -0.508 OA
ATOM     41  H   UNL     1       0.000   0.000   0.000  1.00  0.00     0.293 HD
ENDBRANCH  37  40
ENDBRANCH  19  32
ENDBRANCH   1  11
TORSDOF 11
