REMARK SMILES COc1ccc(-c2coc3c(OC)c(O)ccc3c2=O)cc1
REMARK SMILES IDX 7 1 8 2 9 3 10 4 11 5 14 6 16 7 17 8 18 9 19 10 20 11 6 12
REMARK SMILES IDX 3 13 4 14 22 15 5 16 21 17 2 18 1 19 12 20 13 21 15 22
REMARK H PARENT 15 23
ROOT
ATOM      1  C   UNL     1      -0.550  -0.347   0.000  1.00  0.00     0.065 A 
ATOM      2  C   UNL     1       0.184  -1.656   0.000  1.00  0.00     0.208 A 
ATOM      3  O   UNL     1       1.684  -1.675   0.000  1.00  0.00    -0.459 OA
ATOM      4  C   UNL     1       2.450  -0.385   0.000  1.00  0.00     0.183 A 
ATOM      5  C   UNL     1       3.950  -0.404   0.000  1.00  0.00     0.204 A 
ATOM      6  C   UNL     1       4.716   0.886   0.000  1.00  0.00     0.161 A 
ATOM      7  C   UNL     1       3.982   2.194   0.000  1.00  0.00     0.051 A 
ATOM      8  C   UNL     1       2.482   2.213   0.000  1.00  0.00     0.020 A 
ATOM      9  C   UNL     1       1.716   0.923   0.000  1.00  0.00     0.069 A 
ATOM     10  C   UNL     1       0.216   0.942   0.000  1.00  0.00     0.200 A 
ATOM     11  O   UNL     1      -0.517   2.251   0.000  1.00  0.00    -0.288 OA
ENDROOT
BRANCH   1  12
ATOM     12  C   UNL     1      -2.050  -0.329   0.000  1.00  0.00    -0.011 A 
ATOM     13  C   UNL     1      -5.050  -0.291   0.000  1.00  0.00     0.118 A 
ATOM     14  C   UNL     1      -4.283   0.999   0.000  1.00  0.00     0.047 A 
ATOM     15  C   UNL     1      -4.316  -1.599   0.000  1.00  0.00     0.047 A 
ATOM     16  C   UNL     1      -2.783   0.980   0.000  1.00  0.00     0.013 A 
ATOM     17  C   UNL     1      -2.816  -1.618   0.000  1.00  0.00     0.013 A 
BRANCH  13  18
ATOM     18  O   UNL     1      -6.549  -0.272   0.000  1.00  0.00    -0.497 OA
ATOM     19  C   UNL     1      -7.283   1.036   0.000  1.00  0.00     0.278 C 
ENDBRANCH  13  18
ENDBRANCH   1  12
BRANCH   5  20
ATOM     20  O   UNL     1       4.683  -1.712   0.000  1.00  0.00    -0.490 OA
ATOM     21  C   UNL     1       3.917  -3.002   0.000  1.00  0.00     0.278 C 
ENDBRANCH   5  20
BRANCH   6  22
ATOM     22  O   UNL     1       6.216   0.867   0.000  1.00  0.00    -0.504 OA
ATOM     23  H   UNL     1       0.000   0.000   0.000  1.00  0.00     0.293 HD
ENDBRANCH   6  22
TORSDOF 4
