REMARK SMILES COC(=O)C1=COC(O[C@@H]2O[C@H](COC(C)=O)[C@@H](O)[C@H](O)[C@H]2O)C([C@H](C)OC(C)=O)[C@@H]1CC(=O)O
REMARK SMILES IDX 9 1 8 2 5 3 6 4 31 5 7 6 24 7 3 8 4 9 2 10 1 11 32 12 33 13
REMARK SMILES IDX 34 14 35 15 25 17 26 18 27 19 28 20 29 21 30 22 10 23 11 24
REMARK SMILES IDX 22 25 12 26 20 27 18 28 23 29 13 31 14 32 15 33 16 34 17 35
REMARK SMILES IDX 21 36 19 38
REMARK H PARENT 35 16 23 30 21 37 19 39
ROOT
ATOM      1  O   UNL     1      -0.903   0.426   0.000  1.00  0.00    -0.310 OA
ENDROOT
BRANCH   1   2
ATOM      2  C   UNL     1       0.476  -0.163   0.000  1.00  0.00     0.316 C 
ATOM      3  C   UNL     1       3.235  -1.343   0.000  1.00  0.00     0.076 C 
ATOM      4  C   UNL     1       2.034  -2.242   0.000  1.00  0.00     0.202 C 
ATOM      5  C   UNL     1       3.056   0.147   0.000  1.00  0.00     0.054 C 
ATOM      6  O   UNL     1       0.655  -1.653   0.000  1.00  0.00    -0.471 OA
ATOM      7  C   UNL     1       1.676   0.736   0.000  1.00  0.00     0.107 C 
BRANCH   3   8
ATOM      8  C   UNL     1       4.614  -1.932   0.000  1.00  0.00     0.337 C 
ATOM      9  O   UNL     1       5.467  -1.443   0.000  1.00  0.00    -0.246 OA
BRANCH   8  10
ATOM     10  O   UNL     1       4.793  -3.422   0.000  1.00  0.00    -0.466 OA
ATOM     11  C   UNL     1       6.172  -4.011   0.000  1.00  0.00     0.282 C 
ENDBRANCH   8  10
ENDBRANCH   3   8
BRANCH   5  12
ATOM     12  C   UNL     1       4.256   1.046   0.000  1.00  0.00     0.132 C 
BRANCH  12  13
ATOM     13  C   UNL     1       5.635   0.457   0.000  1.00  0.00     0.303 C 
ATOM     14  O   UNL     1       5.871  -0.499   0.000  1.00  0.00    -0.252 OA
BRANCH  13  15
ATOM     15  O   UNL     1       6.835   1.356   0.000  1.00  0.00    -0.481 OA
ATOM     16  H   UNL     1       0.000   0.000   0.000  1.00  0.00     0.296 HD
ENDBRANCH  13  15
ENDBRANCH  12  13
ENDBRANCH   5  12
BRANCH   7  17
ATOM     17  C   UNL     1       1.498   2.226   0.000  1.00  0.00     0.183 C 
ATOM     18  C   UNL     1       0.118   2.815   0.000  1.00  0.00     0.053 C 
BRANCH  17  19
ATOM     19  O   UNL     1       2.698   3.125   0.000  1.00  0.00    -0.462 OA
BRANCH  19  20
ATOM     20  C   UNL     1       2.519   4.614   0.000  1.00  0.00     0.302 C 
ATOM     21  C   UNL     1       3.719   5.514   0.000  1.00  0.00     0.139 C 
ATOM     22  O   UNL     1       1.140   5.204   0.000  1.00  0.00    -0.253 OA
ENDBRANCH  19  20
ENDBRANCH  17  19
ENDBRANCH   7  17
ENDBRANCH   1   2
BRANCH   1  23
ATOM     23  C   UNL     1      -2.103  -0.473   0.000  1.00  0.00     0.286 C 
ATOM     24  O   UNL     1      -3.483   0.117   0.000  1.00  0.00    -0.340 OA
ATOM     25  C   UNL     1      -1.925  -1.962   0.000  1.00  0.00     0.202 C 
ATOM     26  C   UNL     1      -4.683  -0.783   0.000  1.00  0.00     0.190 C 
ATOM     27  C   UNL     1      -3.125  -2.862   0.000  1.00  0.00     0.179 C 
ATOM     28  C   UNL     1      -4.504  -2.272   0.000  1.00  0.00     0.178 C 
BRANCH  25  29
ATOM     29  O   UNL     1      -0.545  -2.552   0.000  1.00  0.00    -0.385 OA
ATOM     30  H   UNL     1       0.000   0.000   0.000  1.00  0.00     0.211 HD
ENDBRANCH  25  29
BRANCH  26  31
ATOM     31  C   UNL     1      -6.062  -0.193   0.000  1.00  0.00     0.267 C 
BRANCH  31  32
ATOM     32  O   UNL     1      -6.241   1.296   0.000  1.00  0.00    -0.463 OA
BRANCH  32  33
ATOM     33  C   UNL     1      -7.620   1.886   0.000  1.00  0.00     0.302 C 
ATOM     34  C   UNL     1      -7.799   3.375   0.000  1.00  0.00     0.139 C 
ATOM     35  O   UNL     1      -8.821   0.986   0.000  1.00  0.00    -0.253 OA
ENDBRANCH  32  33
ENDBRANCH  31  32
ENDBRANCH  26  31
BRANCH  27  36
ATOM     36  O   UNL     1      -2.946  -4.351   0.000  1.00  0.00    -0.387 OA
ATOM     37  H   UNL     1       0.000   0.000   0.000  1.00  0.00     0.211 HD
ENDBRANCH  27  36
BRANCH  28  38
ATOM     38  O   UNL     1      -5.705  -3.172   0.000  1.00  0.00    -0.387 OA
ATOM     39  H   UNL     1       0.000   0.000   0.000  1.00  0.00     0.211 HD
ENDBRANCH  28  38
ENDBRANCH   1  23
TORSDOF 16
