REMARK SMILES CC(=O)CCCCCCCCCCCC[C@H]1CC[C@@H](O)[C@@H](C)N1C(=O)OC(C)(C)C
REMARK SMILES IDX 11 1 10 2 9 3 8 4 7 5 6 6 5 7 4 8 2 9 1 10 3 11 12 12 13 13
REMARK SMILES IDX 14 14 15 15 16 16 17 17 23 18 18 19 21 20 19 21 22 22 24 23
REMARK SMILES IDX 25 24 26 25 27 26 28 27 29 28 30 29 20 30
REMARK H PARENT 20 31
ROOT
ATOM      1  C   UNL     1      -2.041   0.159   0.000  1.00  0.00     0.000 C 
ENDROOT
BRANCH   1   2
ATOM      2  C   UNL     1      -3.364   0.866   0.000  1.00  0.00     0.000 C 
BRANCH   2   3
ATOM      3  C   UNL     1      -4.638   0.074   0.000  1.00  0.00     0.000 C 
BRANCH   3   4
ATOM      4  C   UNL     1      -5.961   0.782   0.000  1.00  0.00     0.000 C 
BRANCH   4   5
ATOM      5  C   UNL     1      -7.235  -0.010   0.000  1.00  0.00     0.000 C 
BRANCH   5   6
ATOM      6  C   UNL     1      -8.557   0.698   0.000  1.00  0.00     0.000 C 
BRANCH   6   7
ATOM      7  C   UNL     1      -9.832  -0.094   0.000  1.00  0.00     0.008 C 
BRANCH   7   8
ATOM      8  C   UNL     1     -11.154   0.613   0.000  1.00  0.00     0.075 C 
BRANCH   8   9
ATOM      9  C   UNL     1     -12.428  -0.179   0.000  1.00  0.00     0.129 C 
ATOM     10  C   UNL     1     -13.751   0.529   0.000  1.00  0.00     0.087 C 
ATOM     11  O   UNL     1     -12.380  -1.678   0.000  1.00  0.00    -0.300 OA
ENDBRANCH   8   9
ENDBRANCH   7   8
ENDBRANCH   6   7
ENDBRANCH   5   6
ENDBRANCH   4   5
ENDBRANCH   3   4
ENDBRANCH   2   3
ENDBRANCH   1   2
BRANCH   1  12
ATOM     12  C   UNL     1      -0.767   0.951   0.000  1.00  0.00     0.000 C 
BRANCH  12  13
ATOM     13  C   UNL     1       0.555   0.243   0.000  1.00  0.00     0.000 C 
BRANCH  13  14
ATOM     14  C   UNL     1       1.829   1.035   0.000  1.00  0.00     0.002 C 
BRANCH  14  15
ATOM     15  C   UNL     1       3.152   0.328   0.000  1.00  0.00     0.025 C 
BRANCH  15  16
ATOM     16  C   UNL     1       4.426   1.119   0.000  1.00  0.00     0.089 C 
ATOM     17  C   UNL     1       4.377   2.619   0.000  1.00  0.00     0.028 C 
ATOM     18  N   UNL     1       5.749   0.412   0.000  1.00  0.00    -0.300 N 
ATOM     19  C   UNL     1       5.651   3.410   0.000  1.00  0.00     0.036 C 
ATOM     20  C   UNL     1       7.023   1.204   0.000  1.00  0.00     0.114 C 
ATOM     21  C   UNL     1       6.974   2.703   0.000  1.00  0.00     0.137 C 
ATOM     22  C   UNL     1       8.345   0.496   0.000  1.00  0.00     0.034 C 
BRANCH  18  23
ATOM     23  C   UNL     1       5.797  -1.087   0.000  1.00  0.00     0.410 C 
ATOM     24  O   UNL     1       7.120  -1.795   0.000  1.00  0.00    -0.224 OA
BRANCH  23  25
ATOM     25  O   UNL     1       4.523  -1.879   0.000  1.00  0.00    -0.444 OA
BRANCH  25  26
ATOM     26  C   UNL     1       4.572  -3.378   0.000  1.00  0.00     0.106 C 
ATOM     27  C   UNL     1       3.073  -3.427   0.000  1.00  0.00     0.056 C 
ATOM     28  C   UNL     1       6.071  -3.330   0.000  1.00  0.00     0.056 C 
ATOM     29  C   UNL     1       4.621  -4.878   0.000  1.00  0.00     0.056 C 
ENDBRANCH  25  26
ENDBRANCH  23  25
ENDBRANCH  18  23
BRANCH  21  30
ATOM     30  O   UNL     1       8.248   3.495   0.000  1.00  0.00    -0.391 OA
ATOM     31  H   UNL     1       0.000   0.000   0.000  1.00  0.00     0.211 HD
ENDBRANCH  21  30
ENDBRANCH  15  16
ENDBRANCH  14  15
ENDBRANCH  13  14
ENDBRANCH  12  13
ENDBRANCH   1  12
TORSDOF 17
