REMARK SMILES COc1cc(O)c2c(c1)C(=O)c1cc(C)cc(O)c1C2=O
REMARK SMILES IDX 3 1 4 2 5 3 7 4 20 5 21 6 19 7 17 8 16 9 14 10 15 11 13 12
REMARK SMILES IDX 12 13 10 14 11 15 8 16 9 17 2 18 1 19 6 20 18 22
REMARK H PARENT 6 21 18 23
ROOT
ATOM      1  C   UNL     1      -3.618  -0.718   0.000  1.00  0.00     0.123 A 
ATOM      2  C   UNL     1      -3.560   0.781   0.000  1.00  0.00     0.093 A 
ATOM      3  C   UNL     1      -2.233   1.480   0.000  1.00  0.00     0.131 A 
ATOM      4  C   UNL     1      -0.964   0.681   0.000  1.00  0.00     0.076 A 
ATOM      5  C   UNL     1       0.363   1.380   0.000  1.00  0.00     0.201 C 
ATOM      6  O   UNL     1       0.421   2.879   0.000  1.00  0.00    -0.288 OA
ATOM      7  C   UNL     1       1.632   0.580   0.000  1.00  0.00     0.076 A 
ATOM      8  C   UNL     1       2.959   1.279   0.000  1.00  0.00     0.127 A 
ATOM      9  C   UNL     1       4.228   0.479   0.000  1.00  0.00     0.050 A 
ATOM     10  C   UNL     1       4.170  -1.020   0.000  1.00  0.00    -0.047 A 
ATOM     11  C   UNL     1       5.439  -1.819   0.000  1.00  0.00     0.044 C 
ATOM     12  C   UNL     1       2.843  -1.719   0.000  1.00  0.00     0.016 A 
ATOM     13  C   UNL     1       1.574  -0.919   0.000  1.00  0.00     0.038 A 
ATOM     14  C   UNL     1       0.247  -1.618   0.000  1.00  0.00     0.194 C 
ATOM     15  O   UNL     1       0.189  -3.117   0.000  1.00  0.00    -0.289 OA
ATOM     16  C   UNL     1      -1.022  -0.818   0.000  1.00  0.00     0.041 A 
ATOM     17  C   UNL     1      -2.349  -1.517   0.000  1.00  0.00     0.059 A 
ENDROOT
BRANCH   1  18
ATOM     18  O   UNL     1      -4.946  -1.417   0.000  1.00  0.00    -0.497 OA
ATOM     19  C   UNL     1      -6.215  -0.617   0.000  1.00  0.00     0.278 C 
ENDBRANCH   1  18
BRANCH   3  20
ATOM     20  O   UNL     1      -2.175   2.979   0.000  1.00  0.00    -0.507 OA
ATOM     21  H   UNL     1       0.000   0.000   0.000  1.00  0.00     0.293 HD
ENDBRANCH   3  20
BRANCH   8  22
ATOM     22  O   UNL     1       3.017   2.778   0.000  1.00  0.00    -0.507 OA
ATOM     23  H   UNL     1       0.000   0.000   0.000  1.00  0.00     0.293 HD
ENDBRANCH   8  22
TORSDOF 3
