REMARK SMILES COc1c(CC=C(C)C)cc2ccc(=O)oc2c1O
REMARK SMILES IDX 5 1 4 2 3 3 18 4 10 5 17 6 11 7 16 8 12 9 14 10 13 11 15 12
REMARK SMILES IDX 2 13 1 14 19 15 6 17 7 18 8 19 9 20
REMARK H PARENT 19 16
ROOT
ATOM      1  C   UNL     1      -2.320  -1.148   0.000  1.00  0.00     0.067 C 
ENDROOT
BRANCH   1   2
ATOM      2  C   UNL     1      -0.900  -0.666   0.000  1.00  0.00     0.003 A 
ATOM      3  C   UNL     1      -0.606   0.805   0.000  1.00  0.00     0.168 A 
ATOM      4  C   UNL     1       0.814   1.287   0.000  1.00  0.00     0.202 A 
ATOM      5  C   UNL     1       0.228  -1.655   0.000  1.00  0.00     0.020 A 
ATOM      6  C   UNL     1       1.942   0.297   0.000  1.00  0.00     0.183 A 
ATOM      7  C   UNL     1       1.648  -1.174   0.000  1.00  0.00     0.022 A 
ATOM      8  O   UNL     1       3.362   0.779   0.000  1.00  0.00    -0.419 OA
ATOM      9  C   UNL     1       2.776  -2.163   0.000  1.00  0.00     0.019 A 
ATOM     10  C   UNL     1       4.489  -0.210   0.000  1.00  0.00     0.336 A 
ATOM     11  C   UNL     1       4.196  -1.681   0.000  1.00  0.00     0.094 A 
ATOM     12  O   UNL     1       5.910   0.271   0.000  1.00  0.00    -0.246 OA
BRANCH   3  13
ATOM     13  O   UNL     1      -1.734   1.794   0.000  1.00  0.00    -0.492 OA
ATOM     14  C   UNL     1      -1.441   3.266   0.000  1.00  0.00     0.278 C 
ENDBRANCH   3  13
BRANCH   4  15
ATOM     15  O   UNL     1       1.107   2.758   0.000  1.00  0.00    -0.502 OA
ATOM     16  H   UNL     1       0.000   0.000   0.000  1.00  0.00     0.293 HD
ENDBRANCH   4  15
ENDBRANCH   1   2
BRANCH   1  17
ATOM     17  C   UNL     1      -3.448  -0.158   0.000  1.00  0.00    -0.023 C 
BRANCH  17  18
ATOM     18  C   UNL     1      -4.868  -0.640   0.000  1.00  0.00    -0.080 C 
ATOM     19  C   UNL     1      -5.995   0.350   0.000  1.00  0.00     0.039 C 
ATOM     20  C   UNL     1      -5.161  -2.111   0.000  1.00  0.00     0.039 C 
ENDBRANCH  17  18
ENDBRANCH   1  17
TORSDOF 5
