REMARK SMILES CC1(C)C=Cc2c(ccc(C(=O)C=Cc3ccccc3)c2O)O1
REMARK SMILES IDX 11 1 12 2 10 3 2 4 4 5 23 6 5 7 7 8 6 9 8 10 21 11 9 12 1 13
REMARK SMILES IDX 3 14 22 15 13 17 14 18 15 19 16 20 20 21 17 22 19 23 18 24
REMARK H PARENT 22 16
ROOT
ATOM      1  C   UNL     1       0.997   1.139   0.000  1.00  0.00     0.189 C 
ATOM      2  O   UNL     1       1.078   2.637   0.000  1.00  0.00    -0.289 OA
ENDROOT
BRANCH   1   3
ATOM      3  C   UNL     1      -0.341   0.460   0.000  1.00  0.00     0.065 A 
ATOM      4  C   UNL     1      -5.611  -0.755   0.000  1.00  0.00     0.122 C 
ATOM      5  C   UNL     1      -5.529   0.742   0.000  1.00  0.00     0.021 C 
ATOM      6  O   UNL     1      -4.354  -1.575   0.000  1.00  0.00    -0.483 OA
ATOM      7  C   UNL     1      -4.191   1.421   0.000  1.00  0.00     0.015 C 
ATOM      8  C   UNL     1      -3.017  -0.896   0.000  1.00  0.00     0.131 A 
ATOM      9  C   UNL     1      -2.935   0.601   0.000  1.00  0.00     0.059 A 
ATOM     10  C   UNL     1      -1.760  -1.716   0.000  1.00  0.00     0.048 A 
ATOM     11  C   UNL     1      -1.597   1.280   0.000  1.00  0.00     0.137 A 
ATOM     12  C   UNL     1      -0.422  -1.037   0.000  1.00  0.00     0.020 A 
ATOM     13  C   UNL     1      -6.199  -2.135   0.000  1.00  0.00     0.061 C 
ATOM     14  C   UNL     1      -7.072  -0.415   0.000  1.00  0.00     0.061 C 
BRANCH  11  15
ATOM     15  O   UNL     1      -1.516   2.778   0.000  1.00  0.00    -0.506 OA
ATOM     16  H   UNL     1       0.000   0.000   0.000  1.00  0.00     0.293 HD
ENDBRANCH  11  15
ENDBRANCH   1   3
BRANCH   1  17
ATOM     17  C   UNL     1       2.253   0.320   0.000  1.00  0.00     0.053 C 
BRANCH  17  18
ATOM     18  C   UNL     1       3.591   0.998   0.000  1.00  0.00     0.012 C 
BRANCH  18  19
ATOM     19  C   UNL     1       4.848   0.178   0.000  1.00  0.00    -0.026 A 
ATOM     20  C   UNL     1       4.766  -1.319   0.000  1.00  0.00     0.008 A 
ATOM     21  C   UNL     1       6.186   0.857   0.000  1.00  0.00     0.008 A 
ATOM     22  C   UNL     1       6.023  -2.139   0.000  1.00  0.00     0.001 A 
ATOM     23  C   UNL     1       7.442   0.037   0.000  1.00  0.00     0.001 A 
ATOM     24  C   UNL     1       7.361  -1.460   0.000  1.00  0.00     0.000 A 
ENDBRANCH  18  19
ENDBRANCH  17  18
ENDBRANCH   1  17
TORSDOF 5
