REMARK SMILES COC(=O)[C@@]1(C)CCC[C@@H]2[C@H]1C[C@@H]1OC(=O)[C@]23C[C@@H](c2ccoc2)OC(=O)[C@H]13
REMARK SMILES IDX 3 1 4 2 2 3 1 4 5 5 7 6 11 7 8 8 10 9 12 10 9 11 17 12 13 13
REMARK SMILES IDX 15 14 18 15 28 16 14 17 19 18 26 19 25 20 6 21 16 22 27 23
REMARK SMILES IDX 20 24 24 25 21 26 23 27 22 28
REMARK H PARENT
ROOT
ATOM      1  C   UNL     1      -5.010   0.351   0.000  1.00  0.00     0.311 C 
ATOM      2  O   UNL     1      -5.851  -0.891   0.000  1.00  0.00    -0.252 OA
ENDROOT
BRANCH   1   3
ATOM      3  O   UNL     1      -5.666   1.700   0.000  1.00  0.00    -0.469 OA
ATOM      4  C   UNL     1      -7.162   1.807   0.000  1.00  0.00     0.282 C 
ENDBRANCH   1   3
BRANCH   1   5
ATOM      5  C   UNL     1      -3.514   0.244   0.000  1.00  0.00     0.068 C 
ATOM      6  C   UNL     1      -3.668   1.736   0.000  1.00  0.00     0.019 C 
ATOM      7  C   UNL     1      -2.144  -0.368   0.000  1.00  0.00     0.014 C 
ATOM      8  C   UNL     1      -2.454   2.616   0.000  1.00  0.00     0.001 C 
ATOM      9  C   UNL     1      -0.930   0.512   0.000  1.00  0.00     0.012 C 
ATOM     10  C   UNL     1      -1.990  -1.860   0.000  1.00  0.00     0.051 C 
ATOM     11  C   UNL     1      -1.084   2.004   0.000  1.00  0.00     0.005 C 
ATOM     12  C   UNL     1       0.440  -0.100   0.000  1.00  0.00     0.092 C 
ATOM     13  C   UNL     1      -0.620  -2.472   0.000  1.00  0.00     0.192 C 
ATOM     14  C   UNL     1       1.483  -1.261   0.000  1.00  0.00     0.313 C 
ATOM     15  C   UNL     1       1.655   0.780   0.000  1.00  0.00     0.070 C 
ATOM     16  C   UNL     1       0.595  -1.592   0.000  1.00  0.00     0.158 C 
ATOM     17  O   UNL     1       0.871  -2.631   0.000  1.00  0.00    -0.461 OA
ATOM     18  C   UNL     1       3.024   0.168   0.000  1.00  0.00     0.211 C 
ATOM     19  C   UNL     1       1.964  -2.204   0.000  1.00  0.00     0.314 C 
ATOM     20  O   UNL     1       3.179  -1.324   0.000  1.00  0.00    -0.457 OA
ATOM     21  C   UNL     1      -3.879  -1.211   0.000  1.00  0.00     0.024 C 
ATOM     22  O   UNL     1       2.280  -1.290   0.000  1.00  0.00    -0.252 OA
ATOM     23  O   UNL     1       2.119  -3.696   0.000  1.00  0.00    -0.252 OA
BRANCH  18  24
ATOM     24  C   UNL     1       4.239   1.048   0.000  1.00  0.00     0.031 A 
ATOM     25  C   UNL     1       4.241   2.548   0.000  1.00  0.00     0.202 A 
ATOM     26  C   UNL     1       5.665   0.582   0.000  1.00  0.00     0.049 A 
ATOM     27  O   UNL     1       5.668   3.009   0.000  1.00  0.00    -0.472 OA
ATOM     28  C   UNL     1       6.548   1.795   0.000  1.00  0.00     0.195 A 
ENDBRANCH  18  24
ENDBRANCH   1   5
TORSDOF 3
