REMARK SMILES COc1ccc(-c2oc3cc(OC)c(O)c(O)c3c(=O)c2OC)cc1O
REMARK SMILES IDX 7 1 21 2 19 3 20 4 18 5 16 6 14 7 11 8 10 9 9 10 8 11 6 12
REMARK SMILES IDX 3 13 4 14 25 15 5 16 24 17 2 18 1 19 26 20 22 22 23 23 17 24
REMARK SMILES IDX 12 26 13 27 15 28
REMARK H PARENT 26 21 17 25 15 29
ROOT
ATOM      1  C   UNL     1      -0.590  -0.123   0.000  1.00  0.00     0.180 A 
ATOM      2  C   UNL     1      -0.145  -1.555   0.000  1.00  0.00     0.210 A 
ATOM      3  C   UNL     1       1.318  -1.887   0.000  1.00  0.00     0.239 A 
ATOM      4  O   UNL     1       1.762  -3.319   0.000  1.00  0.00    -0.285 OA
ATOM      5  C   UNL     1       2.336  -0.785   0.000  1.00  0.00     0.115 A 
ATOM      6  C   UNL     1       3.799  -1.117   0.000  1.00  0.00     0.176 A 
ATOM      7  C   UNL     1       4.817  -0.015   0.000  1.00  0.00     0.201 A 
ATOM      8  C   UNL     1       4.373   1.417   0.000  1.00  0.00     0.168 A 
ATOM      9  C   UNL     1       2.910   1.748   0.000  1.00  0.00     0.098 A 
ATOM     10  C   UNL     1       1.892   0.647   0.000  1.00  0.00     0.146 A 
ATOM     11  O   UNL     1       0.429   0.979   0.000  1.00  0.00    -0.452 OA
ENDROOT
BRANCH   1  12
ATOM     12  C   UNL     1      -2.053   0.209   0.000  1.00  0.00     0.025 A 
ATOM     13  C   UNL     1      -4.979   0.872   0.000  1.00  0.00     0.160 A 
ATOM     14  C   UNL     1      -3.960   1.973   0.000  1.00  0.00     0.051 A 
ATOM     15  C   UNL     1      -4.534  -0.561   0.000  1.00  0.00     0.158 A 
ATOM     16  C   UNL     1      -2.497   1.641   0.000  1.00  0.00     0.016 A 
ATOM     17  C   UNL     1      -3.071  -0.892   0.000  1.00  0.00     0.062 A 
BRANCH  13  18
ATOM     18  O   UNL     1      -6.441   1.203   0.000  1.00  0.00    -0.493 OA
ATOM     19  C   UNL     1      -6.886   2.636   0.000  1.00  0.00     0.278 C 
ENDBRANCH  13  18
BRANCH  15  20
ATOM     20  O   UNL     1      -5.553  -1.662   0.000  1.00  0.00    -0.504 OA
ATOM     21  H   UNL     1       0.000   0.000   0.000  1.00  0.00     0.293 HD
ENDBRANCH  15  20
ENDBRANCH   1  12
BRANCH   2  22
ATOM     22  O   UNL     1      -1.164  -2.656   0.000  1.00  0.00    -0.490 OA
ATOM     23  C   UNL     1      -2.627  -2.325   0.000  1.00  0.00     0.278 C 
ENDBRANCH   2  22
BRANCH   6  24
ATOM     24  O   UNL     1       4.244  -2.549   0.000  1.00  0.00    -0.504 OA
ATOM     25  H   UNL     1       0.000   0.000   0.000  1.00  0.00     0.293 HD
ENDBRANCH   6  24
BRANCH   8  26
ATOM     26  O   UNL     1       5.392   2.518   0.000  1.00  0.00    -0.493 OA
ATOM     27  C   UNL     1       4.947   3.951   0.000  1.00  0.00     0.278 C 
ENDBRANCH   8  26
BRANCH   7  28
ATOM     28  O   UNL     1       6.280  -0.347   0.000  1.00  0.00    -0.502 OA
ATOM     29  H   UNL     1       0.000   0.000   0.000  1.00  0.00     0.293 HD
ENDBRANCH   7  28
TORSDOF 7
