REMARK SMILES C[C@H]1[C@H](C)[C@@H](c2ccc3c(c2)OCO3)O[C@@H]1c1ccc2c(c1)OCO2
REMARK SMILES IDX 1 1 2 2 3 3 4 4 5 5 15 6 16 7 17 8 18 9 22 10 19 11 21 12
REMARK SMILES IDX 20 13 23 14 25 15 24 16 6 17 7 18 11 19 8 20 10 21 9 22
REMARK SMILES IDX 12 23 14 24 13 25
REMARK H PARENT
ROOT
ATOM      1  C   UNL     1       1.632   2.867   0.000  1.00  0.00     0.011 C 
ATOM      2  C   UNL     1       0.750   1.653   0.000  1.00  0.00     0.025 C 
ATOM      3  C   UNL     1      -0.750   1.653   0.000  1.00  0.00     0.025 C 
ATOM      4  C   UNL     1      -1.632   2.867   0.000  1.00  0.00     0.011 C 
ATOM      5  C   UNL     1      -1.214   0.227   0.000  1.00  0.00     0.152 C 
ATOM      6  O   UNL     1       0.000  -0.655   0.000  1.00  0.00    -0.365 OA
ATOM      7  C   UNL     1       1.214   0.227   0.000  1.00  0.00     0.152 C 
ENDROOT
BRANCH   7   8
ATOM      8  C   UNL     1       2.640  -0.237   0.000  1.00  0.00    -0.015 A 
ATOM      9  C   UNL     1       2.952  -1.704   0.000  1.00  0.00     0.010 A 
ATOM     10  C   UNL     1       3.755   0.767   0.000  1.00  0.00     0.057 A 
ATOM     11  C   UNL     1       4.379  -2.167   0.000  1.00  0.00     0.051 A 
ATOM     12  C   UNL     1       5.181   0.303   0.000  1.00  0.00     0.166 A 
ATOM     13  C   UNL     1       5.493  -1.164   0.000  1.00  0.00     0.165 A 
ATOM     14  O   UNL     1       6.481   1.053   0.000  1.00  0.00    -0.454 OA
ATOM     15  O   UNL     1       6.985  -1.321   0.000  1.00  0.00    -0.454 OA
ATOM     16  C   UNL     1       7.595   0.050   0.000  1.00  0.00     0.468 C 
ENDBRANCH   7   8
BRANCH   5  17
ATOM     17  C   UNL     1      -2.640  -0.237   0.000  1.00  0.00    -0.015 A 
ATOM     18  C   UNL     1      -2.952  -1.704   0.000  1.00  0.00     0.010 A 
ATOM     19  C   UNL     1      -3.755   0.767   0.000  1.00  0.00     0.057 A 
ATOM     20  C   UNL     1      -4.379  -2.167   0.000  1.00  0.00     0.051 A 
ATOM     21  C   UNL     1      -5.181   0.303   0.000  1.00  0.00     0.166 A 
ATOM     22  C   UNL     1      -5.493  -1.164   0.000  1.00  0.00     0.165 A 
ATOM     23  O   UNL     1      -6.481   1.053   0.000  1.00  0.00    -0.454 OA
ATOM     24  O   UNL     1      -6.985  -1.321   0.000  1.00  0.00    -0.454 OA
ATOM     25  C   UNL     1      -7.595   0.050   0.000  1.00  0.00     0.468 C 
ENDBRANCH   5  17
TORSDOF 2
