REMARK SMILES COC(=O)C1=CO[C@@H](O[C@@H]2O[C@H](CO)[C@@H](O)[C@H](O)[C@H]2O)[C@H]2[C@@H]1C=C[C@@]2(O)COC(=O)C1=CO[C@@H](O[C@@H]2O[C@H](CO)[C@@H](O)[C@H](O)[C@H]2O)[C@H]2[C@@H]1CC[C@]2(C)O
REMARK SMILES IDX 28 1 27 2 25 3 5 4 6 5 22 6 7 7 21 8 23 9 8 10 24 11 3 12
REMARK SMILES IDX 4 13 2 14 1 15 9 16 10 17 11 18 19 19 12 20 17 21 15 22
REMARK SMILES IDX 20 23 13 25 14 26 18 28 16 30 26 32 29 34 30 35 31 36 32 37
REMARK SMILES IDX 48 38 33 39 47 40 49 41 34 42 51 43 50 44 52 45 35 46 36 47
REMARK SMILES IDX 37 48 45 49 38 50 43 51 41 52 46 53 39 55 40 56 44 58 42 60
REMARK SMILES IDX 53 62
REMARK H PARENT 20 24 14 27 18 29 16 31 26 33 46 54 40 57 44 59 42 61 53 63
ROOT
ATOM      1  O   UNL     1       0.681  -2.704   0.000  1.00  0.00    -0.459 OA
ENDROOT
BRANCH   1   2
ATOM      2  C   UNL     1       2.031  -3.357   0.000  1.00  0.00     0.273 C 
BRANCH   2   3
ATOM      3  C   UNL     1       3.272  -2.513   0.000  1.00  0.00     0.126 C 
ATOM      4  C   UNL     1       6.901  -1.240   0.000  1.00  0.00     0.079 C 
ATOM      5  C   UNL     1       6.791   0.256   0.000  1.00  0.00     0.202 C 
ATOM      6  C   UNL     1       5.660  -2.083   0.000  1.00  0.00     0.065 C 
ATOM      7  O   UNL     1       5.440   0.909   0.000  1.00  0.00    -0.471 OA
ATOM      8  C   UNL     1       4.310  -1.430   0.000  1.00  0.00     0.109 C 
ATOM      9  C   UNL     1       5.457  -3.569   0.000  1.00  0.00    -0.019 C 
ATOM     10  C   UNL     1       4.200   0.066   0.000  1.00  0.00     0.316 C 
ATOM     11  C   UNL     1       3.981  -3.835   0.000  1.00  0.00     0.008 C 
BRANCH   4  12
ATOM     12  C   UNL     1       8.251  -1.892   0.000  1.00  0.00     0.337 C 
ATOM     13  O   UNL     1       8.361  -3.388   0.000  1.00  0.00    -0.246 OA
BRANCH  12  14
ATOM     14  O   UNL     1       9.492  -1.049   0.000  1.00  0.00    -0.466 OA
ATOM     15  C   UNL     1      10.842  -1.701   0.000  1.00  0.00     0.282 C 
ENDBRANCH  12  14
ENDBRANCH   4  12
BRANCH  10  16
ATOM     16  O   UNL     1       2.849   0.718   0.000  1.00  0.00    -0.310 OA
BRANCH  16  17
ATOM     17  C   UNL     1       2.739   2.214   0.000  1.00  0.00     0.286 C 
ATOM     18  O   UNL     1       3.979   3.058   0.000  1.00  0.00    -0.341 OA
ATOM     19  C   UNL     1       1.388   2.867   0.000  1.00  0.00     0.202 C 
ATOM     20  C   UNL     1       3.869   4.553   0.000  1.00  0.00     0.178 C 
ATOM     21  C   UNL     1       1.278   4.363   0.000  1.00  0.00     0.179 C 
ATOM     22  C   UNL     1       2.518   5.206   0.000  1.00  0.00     0.177 C 
BRANCH  19  23
ATOM     23  O   UNL     1       0.148   2.023   0.000  1.00  0.00    -0.385 OA
ATOM     24  H   UNL     1       0.000   0.000   0.000  1.00  0.00     0.211 HD
ENDBRANCH  19  23
BRANCH  20  25
ATOM     25  C   UNL     1       5.110   5.397   0.000  1.00  0.00     0.191 C 
BRANCH  25  26
ATOM     26  O   UNL     1       6.460   4.744   0.000  1.00  0.00    -0.394 OA
ATOM     27  H   UNL     1       0.000   0.000   0.000  1.00  0.00     0.210 HD
ENDBRANCH  25  26
ENDBRANCH  20  25
BRANCH  21  28
ATOM     28  O   UNL     1      -0.072   5.015   0.000  1.00  0.00    -0.387 OA
ATOM     29  H   UNL     1       0.000   0.000   0.000  1.00  0.00     0.211 HD
ENDBRANCH  21  28
BRANCH  22  30
ATOM     30  O   UNL     1       2.408   6.702   0.000  1.00  0.00    -0.387 OA
ATOM     31  H   UNL     1       0.000   0.000   0.000  1.00  0.00     0.211 HD
ENDBRANCH  22  30
ENDBRANCH  16  17
ENDBRANCH  10  16
BRANCH   3  32
ATOM     32  O   UNL     1       2.303  -1.368   0.000  1.00  0.00    -0.382 OA
ATOM     33  H   UNL     1       0.000   0.000   0.000  1.00  0.00     0.212 HD
ENDBRANCH   3  32
ENDBRANCH   2   3
ENDBRANCH   1   2
BRANCH   1  34
ATOM     34  C   UNL     1      -0.560  -3.547   0.000  1.00  0.00     0.337 C 
ATOM     35  O   UNL     1      -0.450  -5.043   0.000  1.00  0.00    -0.246 OA
BRANCH  34  36
ATOM     36  C   UNL     1      -1.910  -2.895   0.000  1.00  0.00     0.075 C 
ATOM     37  C   UNL     1      -2.021  -1.399   0.000  1.00  0.00     0.202 C 
ATOM     38  C   UNL     1      -3.151  -3.738   0.000  1.00  0.00     0.042 C 
ATOM     39  O   UNL     1      -3.371  -0.746   0.000  1.00  0.00    -0.471 OA
ATOM     40  C   UNL     1      -4.502  -3.086   0.000  1.00  0.00     0.098 C 
ATOM     41  C   UNL     1      -3.354  -5.224   0.000  1.00  0.00     0.012 C 
ATOM     42  C   UNL     1      -4.612  -1.590   0.000  1.00  0.00     0.315 C 
ATOM     43  C   UNL     1      -5.540  -4.168   0.000  1.00  0.00     0.071 C 
ATOM     44  C   UNL     1      -4.830  -5.490   0.000  1.00  0.00     0.036 C 
ATOM     45  C   UNL     1      -6.780  -5.012   0.000  1.00  0.00     0.042 C 
BRANCH  42  46
ATOM     46  O   UNL     1      -5.962  -0.937   0.000  1.00  0.00    -0.310 OA
BRANCH  46  47
ATOM     47  C   UNL     1      -6.072   0.559   0.000  1.00  0.00     0.286 C 
ATOM     48  O   UNL     1      -4.832   1.402   0.000  1.00  0.00    -0.341 OA
ATOM     49  C   UNL     1      -7.423   1.212   0.000  1.00  0.00     0.202 C 
ATOM     50  C   UNL     1      -4.942   2.898   0.000  1.00  0.00     0.178 C 
ATOM     51  C   UNL     1      -7.533   2.708   0.000  1.00  0.00     0.179 C 
ATOM     52  C   UNL     1      -6.293   3.551   0.000  1.00  0.00     0.177 C 
BRANCH  49  53
ATOM     53  O   UNL     1      -8.663   0.368   0.000  1.00  0.00    -0.385 OA
ATOM     54  H   UNL     1       0.000   0.000   0.000  1.00  0.00     0.211 HD
ENDBRANCH  49  53
BRANCH  50  55
ATOM     55  C   UNL     1      -3.702   3.742   0.000  1.00  0.00     0.191 C 
BRANCH  55  56
ATOM     56  O   UNL     1      -2.351   3.089   0.000  1.00  0.00    -0.394 OA
ATOM     57  H   UNL     1       0.000   0.000   0.000  1.00  0.00     0.210 HD
ENDBRANCH  55  56
ENDBRANCH  50  55
BRANCH  51  58
ATOM     58  O   UNL     1      -8.884   3.360   0.000  1.00  0.00    -0.387 OA
ATOM     59  H   UNL     1       0.000   0.000   0.000  1.00  0.00     0.211 HD
ENDBRANCH  51  58
BRANCH  52  60
ATOM     60  O   UNL     1      -6.403   5.047   0.000  1.00  0.00    -0.387 OA
ATOM     61  H   UNL     1       0.000   0.000   0.000  1.00  0.00     0.211 HD
ENDBRANCH  52  60
ENDBRANCH  46  47
ENDBRANCH  42  46
BRANCH  43  62
ATOM     62  O   UNL     1      -6.508  -3.023   0.000  1.00  0.00    -0.390 OA
ATOM     63  H   UNL     1       0.000   0.000   0.000  1.00  0.00     0.211 HD
ENDBRANCH  43  62
ENDBRANCH  34  36
ENDBRANCH   1  34
TORSDOF 22
