REMARK SMILES CC(=O)[C@H]1CC[C@@H]2[C@@H]1[C@H](C(C)C)CC[C@@]2(C)O
REMARK SMILES IDX 4 1 5 2 6 3 7 4 8 5 9 6 13 7 14 8 15 9 16 10 2 11 1 12 3 13
REMARK SMILES IDX 10 14 11 15 12 16 17 17
REMARK H PARENT 17 18
ROOT
ATOM      1  C   UNL     1       1.007   1.297   0.000  1.00  0.00     0.059 C 
ATOM      2  C   UNL     1       0.286   2.612   0.000  1.00  0.00     0.012 C 
ATOM      3  C   UNL     1      -1.188   2.332   0.000  1.00  0.00     0.007 C 
ATOM      4  C   UNL     1      -1.377   0.844   0.000  1.00  0.00     0.025 C 
ATOM      5  C   UNL     1      -0.021   0.204   0.000  1.00  0.00     0.009 C 
ATOM      6  C   UNL     1       0.104  -1.290   0.000  1.00  0.00    -0.004 C 
ATOM      7  C   UNL     1      -1.129  -2.145   0.000  1.00  0.00     0.007 C 
ATOM      8  C   UNL     1      -2.486  -1.506   0.000  1.00  0.00     0.035 C 
ATOM      9  C   UNL     1      -2.610  -0.011   0.000  1.00  0.00     0.065 C 
ATOM     10  C   UNL     1      -3.238   1.351   0.000  1.00  0.00     0.042 C 
ENDROOT
BRANCH   1  11
ATOM     11  C   UNL     1       2.495   1.108   0.000  1.00  0.00     0.133 C 
ATOM     12  C   UNL     1       3.403   2.302   0.000  1.00  0.00     0.088 C 
ATOM     13  O   UNL     1       3.075  -0.276   0.000  1.00  0.00    -0.300 OA
ENDBRANCH   1  11
BRANCH   6  14
ATOM     14  C   UNL     1       1.460  -1.930   0.000  1.00  0.00    -0.014 C 
ATOM     15  C   UNL     1       1.585  -3.425   0.000  1.00  0.00     0.007 C 
ATOM     16  C   UNL     1       2.693  -1.075   0.000  1.00  0.00     0.007 C 
ENDBRANCH   6  14
BRANCH   9  17
ATOM     17  O   UNL     1      -4.060  -0.393   0.000  1.00  0.00    -0.390 OA
ATOM     18  H   UNL     1       0.000   0.000   0.000  1.00  0.00     0.211 HD
ENDBRANCH   9  17
TORSDOF 3
