REMARK SMILES CCOC(C)OCC
REMARK SMILES IDX 4 1 5 2 3 3 2 4 1 5 6 6 7 7 8 8
REMARK H PARENT
ROOT
ATOM      1  C   UNL     1      -0.012  -0.817   0.000  1.00  0.00     0.246 C 
ATOM      2  C   UNL     1       0.563  -2.202   0.000  1.00  0.00     0.071 C 
ENDROOT
BRANCH   1   3
ATOM      3  O   UNL     1      -1.500  -0.623   0.000  1.00  0.00    -0.353 OA
BRANCH   3   4
ATOM      4  C   UNL     1      -2.075   0.762   0.000  1.00  0.00     0.160 C 
ATOM      5  C   UNL     1      -3.562   0.957   0.000  1.00  0.00     0.035 C 
ENDBRANCH   3   4
ENDBRANCH   1   3
BRANCH   1   6
ATOM      6  O   UNL     1       0.900   0.374   0.000  1.00  0.00    -0.353 OA
BRANCH   6   7
ATOM      7  C   UNL     1       2.387   0.179   0.000  1.00  0.00     0.160 C 
ATOM      8  C   UNL     1       3.299   1.370   0.000  1.00  0.00     0.035 C 
ENDBRANCH   6   7
ENDBRANCH   1   6
TORSDOF 4
