REMARK SMILES CC(C)=C/C=C/[C@@]1(C)CCc2c(O)cc(C)c(CC=C(C)C)c2O1
REMARK SMILES IDX 7 1 8 2 9 3 10 4 11 5 12 6 14 7 15 8 16 9 17 10 23 11 24 12
REMARK SMILES IDX 6 13 5 14 4 15 2 16 1 17 3 18 18 19 19 20 20 21 21 22 22 23
REMARK SMILES IDX 13 24
REMARK H PARENT 13 25
ROOT
ATOM      1  C   UNL     1      -0.939   0.988   0.000  1.00  0.00     0.125 C 
ATOM      2  C   UNL     1      -1.715  -0.296   0.000  1.00  0.00     0.061 C 
ATOM      3  C   UNL     1      -0.649   2.459   0.000  1.00  0.00     0.058 C 
ATOM      4  C   UNL     1       0.771   2.944   0.000  1.00  0.00     0.048 C 
ATOM      5  C   UNL     1       1.900   1.957   0.000  1.00  0.00     0.036 A 
ATOM      6  C   UNL     1       3.320   2.441   0.000  1.00  0.00     0.122 A 
ATOM      7  C   UNL     1       4.449   1.454   0.000  1.00  0.00     0.050 A 
ATOM      8  C   UNL     1       4.159  -0.018   0.000  1.00  0.00    -0.040 A 
ATOM      9  C   UNL     1       5.288  -1.005   0.000  1.00  0.00     0.045 C 
ATOM     10  C   UNL     1       2.739  -0.502   0.000  1.00  0.00     0.001 A 
ATOM     11  C   UNL     1       1.610   0.485   0.000  1.00  0.00     0.131 A 
ATOM     12  O   UNL     1       0.190   0.001   0.000  1.00  0.00    -0.483 OA
ENDROOT
BRANCH   1  13
ATOM     13  C   UNL     1      -2.338   1.529   0.000  1.00  0.00     0.020 C 
BRANCH  13  14
ATOM     14  C   UNL     1      -3.506   0.588   0.000  1.00  0.00    -0.000 C 
BRANCH  14  15
ATOM     15  C   UNL     1      -4.905   1.130   0.000  1.00  0.00    -0.002 C 
BRANCH  15  16
ATOM     16  C   UNL     1      -6.074   0.189   0.000  1.00  0.00    -0.076 C 
ATOM     17  C   UNL     1      -7.472   0.731   0.000  1.00  0.00     0.039 C 
ATOM     18  C   UNL     1      -5.843  -1.293   0.000  1.00  0.00     0.039 C 
ENDBRANCH  15  16
ENDBRANCH  14  15
ENDBRANCH  13  14
ENDBRANCH   1  13
BRANCH  10  19
ATOM     19  C   UNL     1       2.449  -1.974   0.000  1.00  0.00     0.067 C 
BRANCH  19  20
ATOM     20  C   UNL     1       1.029  -2.458   0.000  1.00  0.00    -0.023 C 
BRANCH  20  21
ATOM     21  C   UNL     1       0.739  -3.930   0.000  1.00  0.00    -0.080 C 
ATOM     22  C   UNL     1      -0.681  -4.414   0.000  1.00  0.00     0.039 C 
ATOM     23  C   UNL     1       1.868  -4.917   0.000  1.00  0.00     0.039 C 
ENDBRANCH  20  21
ENDBRANCH  19  20
ENDBRANCH  10  19
BRANCH   6  24
ATOM     24  O   UNL     1       3.610   3.913   0.000  1.00  0.00    -0.508 OA
ATOM     25  H   UNL     1       0.000   0.000   0.000  1.00  0.00     0.293 HD
ENDBRANCH   6  24
TORSDOF 8
