REMARK SMILES C=CC[C@]12C=C(OC)C(=O)C=C1O[C@H](c1ccccc1)[C@H]2C
REMARK SMILES IDX 4 1 5 2 6 3 9 4 10 5 11 6 12 7 13 8 14 9 21 10 22 11 3 12
REMARK SMILES IDX 2 13 1 14 7 15 8 16 15 17 16 18 20 19 17 20 19 21 18 22
REMARK H PARENT
ROOT
ATOM      1  C   UNL     1       0.798   0.076   0.000  1.00  0.00     0.060 C 
ATOM      2  C   UNL     1       2.192  -0.480   0.000  1.00  0.00     0.039 C 
ATOM      3  C   UNL     1       3.369   0.449   0.000  1.00  0.00     0.163 C 
ATOM      4  C   UNL     1       3.153   1.934   0.000  1.00  0.00     0.223 C 
ATOM      5  O   UNL     1       4.331   2.863   0.000  1.00  0.00    -0.286 OA
ATOM      6  C   UNL     1       1.760   2.489   0.000  1.00  0.00     0.098 C 
ATOM      7  C   UNL     1       0.582   1.560   0.000  1.00  0.00     0.112 C 
ATOM      8  O   UNL     1      -0.896   1.813   0.000  1.00  0.00    -0.489 OA
ATOM      9  C   UNL     1      -1.594   0.486   0.000  1.00  0.00     0.207 C 
ATOM     10  C   UNL     1      -0.547  -0.588   0.000  1.00  0.00     0.049 C 
ATOM     11  C   UNL     1      -0.800  -2.067   0.000  1.00  0.00     0.013 C 
ENDROOT
BRANCH   1  12
ATOM     12  C   UNL     1       0.858  -1.423   0.000  1.00  0.00     0.046 C 
BRANCH  12  13
ATOM     13  C   UNL     1       2.185  -2.121   0.000  1.00  0.00    -0.033 C 
ATOM     14  C   UNL     1       2.245  -3.620   0.000  1.00  0.00     0.004 C 
ENDBRANCH  12  13
ENDBRANCH   1  12
BRANCH   3  15
ATOM     15  O   UNL     1       4.763  -0.106   0.000  1.00  0.00    -0.493 OA
ATOM     16  C   UNL     1       4.978  -1.590   0.000  1.00  0.00     0.278 C 
ENDBRANCH   3  15
BRANCH   9  17
ATOM     17  C   UNL     1      -3.078   0.270   0.000  1.00  0.00    -0.007 A 
ATOM     18  C   UNL     1      -4.008   1.448   0.000  1.00  0.00     0.007 A 
ATOM     19  C   UNL     1      -3.634  -1.123   0.000  1.00  0.00     0.007 A 
ATOM     20  C   UNL     1      -5.492   1.232   0.000  1.00  0.00     0.000 A 
ATOM     21  C   UNL     1      -5.118  -1.339   0.000  1.00  0.00     0.000 A 
ATOM     22  C   UNL     1      -6.047  -0.162   0.000  1.00  0.00     0.000 A 
ENDBRANCH   9  17
TORSDOF 4
