REMARK SMILES COc1ccc(-c2oc3cc(OC)cc(O)c3c(=O)c2OC)cc1
REMARK SMILES IDX 7 1 20 2 18 3 19 4 17 5 15 6 14 7 11 8 10 9 9 10 8 11 6 12
REMARK SMILES IDX 3 13 4 14 24 15 5 16 23 17 2 18 1 19 21 20 22 21 16 22 12 24
REMARK SMILES IDX 13 25
REMARK H PARENT 16 23
ROOT
ATOM      1  C   UNL     1      -0.633  -0.159   0.000  1.00  0.00     0.180 A 
ATOM      2  C   UNL     1      -0.129  -1.572   0.000  1.00  0.00     0.210 A 
ATOM      3  C   UNL     1       1.346  -1.843   0.000  1.00  0.00     0.239 A 
ATOM      4  O   UNL     1       1.850  -3.256   0.000  1.00  0.00    -0.285 OA
ATOM      5  C   UNL     1       2.318  -0.700   0.000  1.00  0.00     0.111 A 
ATOM      6  C   UNL     1       3.793  -0.971   0.000  1.00  0.00     0.134 A 
ATOM      7  C   UNL     1       4.765   0.172   0.000  1.00  0.00     0.093 A 
ATOM      8  C   UNL     1       4.262   1.585   0.000  1.00  0.00     0.126 A 
ATOM      9  C   UNL     1       2.787   1.855   0.000  1.00  0.00     0.094 A 
ATOM     10  C   UNL     1       1.815   0.713   0.000  1.00  0.00     0.146 A 
ATOM     11  O   UNL     1       0.339   0.983   0.000  1.00  0.00    -0.452 OA
ENDROOT
BRANCH   1  12
ATOM     12  C   UNL     1      -2.108   0.111   0.000  1.00  0.00     0.021 A 
ATOM     13  C   UNL     1      -5.059   0.652   0.000  1.00  0.00     0.118 A 
ATOM     14  C   UNL     1      -4.087   1.795   0.000  1.00  0.00     0.047 A 
ATOM     15  C   UNL     1      -4.556  -0.761   0.000  1.00  0.00     0.047 A 
ATOM     16  C   UNL     1      -2.612   1.524   0.000  1.00  0.00     0.016 A 
ATOM     17  C   UNL     1      -3.080  -1.031   0.000  1.00  0.00     0.016 A 
BRANCH  13  18
ATOM     18  O   UNL     1      -6.535   0.923   0.000  1.00  0.00    -0.497 OA
ATOM     19  C   UNL     1      -7.038   2.336   0.000  1.00  0.00     0.278 C 
ENDBRANCH  13  18
ENDBRANCH   1  12
BRANCH   2  20
ATOM     20  O   UNL     1      -1.101  -2.715   0.000  1.00  0.00    -0.490 OA
ATOM     21  C   UNL     1      -2.577  -2.444   0.000  1.00  0.00     0.278 C 
ENDBRANCH   2  20
BRANCH   6  22
ATOM     22  O   UNL     1       4.297  -2.384   0.000  1.00  0.00    -0.507 OA
ATOM     23  H   UNL     1       0.000   0.000   0.000  1.00  0.00     0.293 HD
ENDBRANCH   6  22
BRANCH   8  24
ATOM     24  O   UNL     1       5.234   2.728   0.000  1.00  0.00    -0.496 OA
ATOM     25  C   UNL     1       6.709   2.457   0.000  1.00  0.00     0.278 C 
ENDBRANCH   8  24
TORSDOF 5
