REMARK SMILES COC(=O)C1=CO[C@@H](O[C@@H]2O[C@H](CO)[C@@H](O)[C@H](O)[C@H]2O)[C@H]2[C@@H]1[C@H](O)C[C@]2(C)O
REMARK SMILES IDX 9 1 8 2 5 3 6 4 22 5 7 6 21 7 23 8 26 9 25 10 27 11 3 12
REMARK SMILES IDX 4 13 2 14 1 15 24 16 28 18 10 20 11 21 19 22 12 23 17 24
REMARK SMILES IDX 15 25 20 26 13 28 14 29 18 31 16 33
REMARK H PARENT 24 17 28 19 20 27 14 30 18 32 16 34
ROOT
ATOM      1  O   UNL     1      -1.056   1.180   0.000  1.00  0.00    -0.310 OA
ENDROOT
BRANCH   1   2
ATOM      2  C   UNL     1       0.270   0.479   0.000  1.00  0.00     0.315 C 
ATOM      3  C   UNL     1       2.922  -0.923   0.000  1.00  0.00     0.078 C 
ATOM      4  C   UNL     1       1.652  -1.721   0.000  1.00  0.00     0.202 C 
ATOM      5  C   UNL     1       2.866   0.576   0.000  1.00  0.00     0.071 C 
ATOM      6  O   UNL     1       0.326  -1.020   0.000  1.00  0.00    -0.471 OA
ATOM      7  C   UNL     1       1.540   1.277   0.000  1.00  0.00     0.100 C 
ATOM      8  C   UNL     1       3.943   1.620   0.000  1.00  0.00     0.125 C 
ATOM      9  C   UNL     1       1.797   2.755   0.000  1.00  0.00     0.074 C 
ATOM     10  C   UNL     1       3.282   2.967   0.000  1.00  0.00     0.068 C 
ATOM     11  C   UNL     1       1.741   4.254   0.000  1.00  0.00     0.043 C 
BRANCH   3  12
ATOM     12  C   UNL     1       4.248  -1.625   0.000  1.00  0.00     0.337 C 
ATOM     13  O   UNL     1       5.518  -0.827   0.000  1.00  0.00    -0.246 OA
BRANCH  12  14
ATOM     14  O   UNL     1       4.304  -3.123   0.000  1.00  0.00    -0.466 OA
ATOM     15  C   UNL     1       5.630  -3.825   0.000  1.00  0.00     0.282 C 
ENDBRANCH  12  14
ENDBRANCH   3  12
BRANCH   8  16
ATOM     16  O   UNL     1       5.420   1.363   0.000  1.00  0.00    -0.392 OA
ATOM     17  H   UNL     1       0.000   0.000   0.000  1.00  0.00     0.210 HD
ENDBRANCH   8  16
BRANCH   9  18
ATOM     18  O   UNL     1       0.300   2.856   0.000  1.00  0.00    -0.390 OA
ATOM     19  H   UNL     1       0.000   0.000   0.000  1.00  0.00     0.211 HD
ENDBRANCH   9  18
ENDBRANCH   1   2
BRANCH   1  20
ATOM     20  C   UNL     1      -2.326   0.382   0.000  1.00  0.00     0.286 C 
ATOM     21  O   UNL     1      -3.653   1.083   0.000  1.00  0.00    -0.341 OA
ATOM     22  C   UNL     1      -2.271  -1.117   0.000  1.00  0.00     0.202 C 
ATOM     23  C   UNL     1      -4.923   0.286   0.000  1.00  0.00     0.178 C 
ATOM     24  C   UNL     1      -3.541  -1.914   0.000  1.00  0.00     0.179 C 
ATOM     25  C   UNL     1      -4.867  -1.213   0.000  1.00  0.00     0.177 C 
BRANCH  22  26
ATOM     26  O   UNL     1      -0.945  -1.818   0.000  1.00  0.00    -0.385 OA
ATOM     27  H   UNL     1       0.000   0.000   0.000  1.00  0.00     0.211 HD
ENDBRANCH  22  26
BRANCH  23  28
ATOM     28  C   UNL     1      -6.249   0.987   0.000  1.00  0.00     0.191 C 
BRANCH  28  29
ATOM     29  O   UNL     1      -6.305   2.486   0.000  1.00  0.00    -0.394 OA
ATOM     30  H   UNL     1       0.000   0.000   0.000  1.00  0.00     0.210 HD
ENDBRANCH  28  29
ENDBRANCH  23  28
BRANCH  24  31
ATOM     31  O   UNL     1      -3.485  -3.413   0.000  1.00  0.00    -0.387 OA
ATOM     32  H   UNL     1       0.000   0.000   0.000  1.00  0.00     0.211 HD
ENDBRANCH  24  31
BRANCH  25  33
ATOM     33  O   UNL     1      -6.137  -2.011   0.000  1.00  0.00    -0.387 OA
ATOM     34  H   UNL     1       0.000   0.000   0.000  1.00  0.00     0.211 HD
ENDBRANCH  25  33
ENDBRANCH   1  20
TORSDOF 11
