REMARK SMILES COc1cccc(OC)c1C(=O)OCc1ccccc1
REMARK SMILES IDX 11 1 12 2 10 3 3 4 4 5 5 6 7 7 6 8 2 9 1 10 8 11 9 12 13 13
REMARK SMILES IDX 14 14 15 15 16 16 20 17 17 18 19 19 18 20
REMARK H PARENT
ROOT
ATOM      1  C   UNL     1      -0.777   0.959   0.000  1.00  0.00     0.346 C 
ATOM      2  O   UNL     1      -0.967   2.447   0.000  1.00  0.00    -0.246 OA
ENDROOT
BRANCH   1   3
ATOM      3  C   UNL     1      -1.971   0.051   0.000  1.00  0.00     0.143 A 
ATOM      4  C   UNL     1      -1.781  -1.437   0.000  1.00  0.00     0.137 A 
ATOM      5  C   UNL     1      -2.974  -2.346   0.000  1.00  0.00     0.047 A 
ATOM      6  C   UNL     1      -4.358  -1.766   0.000  1.00  0.00     0.008 A 
ATOM      7  C   UNL     1      -3.354   0.630   0.000  1.00  0.00     0.137 A 
ATOM      8  C   UNL     1      -4.548  -0.278   0.000  1.00  0.00     0.047 A 
BRANCH   4   9
ATOM      9  O   UNL     1      -0.397  -2.017   0.000  1.00  0.00    -0.496 OA
ATOM     10  C   UNL     1      -0.207  -3.505   0.000  1.00  0.00     0.278 C 
ENDBRANCH   4   9
BRANCH   7  11
ATOM     11  O   UNL     1      -3.545   2.118   0.000  1.00  0.00    -0.496 OA
ATOM     12  C   UNL     1      -4.928   2.697   0.000  1.00  0.00     0.278 C 
ENDBRANCH   7  11
ENDBRANCH   1   3
BRANCH   1  13
ATOM     13  O   UNL     1       0.606   0.380   0.000  1.00  0.00    -0.457 OA
BRANCH  13  14
ATOM     14  C   UNL     1       1.800   1.288   0.000  1.00  0.00     0.269 C 
BRANCH  14  15
ATOM     15  C   UNL     1       3.183   0.709   0.000  1.00  0.00    -0.011 A 
ATOM     16  C   UNL     1       3.373  -0.779   0.000  1.00  0.00     0.007 A 
ATOM     17  C   UNL     1       4.377   1.617   0.000  1.00  0.00     0.007 A 
ATOM     18  C   UNL     1       4.757  -1.358   0.000  1.00  0.00     0.000 A 
ATOM     19  C   UNL     1       5.761   1.038   0.000  1.00  0.00     0.000 A 
ATOM     20  C   UNL     1       5.951  -0.450   0.000  1.00  0.00     0.000 A 
ENDBRANCH  14  15
ENDBRANCH  13  14
ENDBRANCH   1  13
TORSDOF 6
