REMARK SMILES C=C/C(C)=C\C[C@]1(C)[C@H](C)[C@@H](OC(=O)CCC)[C@H](OC(C)=O)[C@@]23C(=C[C@H](OC)C[C@@H]12)[C@@H](OC(=O)CCC)O[C@H]3OC(C)=O
REMARK SMILES IDX 7 1 8 2 9 3 10 4 11 5 18 6 23 7 24 8 25 9 26 10 29 11 30 12
REMARK SMILES IDX 31 13 38 14 39 15 6 16 5 17 3 18 4 19 2 20 1 21 12 22 13 23
REMARK SMILES IDX 14 24 15 25 16 26 17 27 19 28 20 29 21 30 22 31 27 32 28 33
REMARK SMILES IDX 40 34 41 35 42 36 43 37 32 38 33 39 34 40 35 41 36 42 37 43
REMARK H PARENT
ROOT
ATOM      1  C   UNL     1       1.956  -1.536   0.000  1.00  0.00    -0.019 C 
ATOM      2  C   UNL     1       2.398  -2.970   0.000  1.00  0.00     0.012 C 
ATOM      3  C   UNL     1       2.031  -0.038   0.000  1.00  0.00     0.037 C 
ATOM      4  C   UNL     1       3.366   0.646   0.000  1.00  0.00     0.012 C 
ATOM      5  C   UNL     1       0.771   0.776   0.000  1.00  0.00     0.222 C 
ATOM      6  C   UNL     1      -0.564   0.091   0.000  1.00  0.00     0.234 C 
ATOM      7  C   UNL     1      -0.639  -1.407   0.000  1.00  0.00     0.104 C 
ATOM      8  C   UNL     1      -1.974  -2.091   0.000  1.00  0.00     0.013 C 
ATOM      9  C   UNL     1      -2.049  -3.589   0.000  1.00  0.00     0.011 C 
ATOM     10  C   UNL     1      -0.788  -4.403   0.000  1.00  0.00     0.141 C 
ATOM     11  C   UNL     1       0.546  -3.719   0.000  1.00  0.00     0.042 C 
ATOM     12  C   UNL     1       0.621  -2.220   0.000  1.00  0.00     0.019 C 
ATOM     13  C   UNL     1      -3.037  -1.033   0.000  1.00  0.00     0.343 C 
ATOM     14  O   UNL     1      -2.359   0.305   0.000  1.00  0.00    -0.298 OA
ATOM     15  C   UNL     1      -0.877   0.074   0.000  1.00  0.00     0.329 C 
ENDROOT
BRANCH   1  16
ATOM     16  C   UNL     1       3.445  -1.350   0.000  1.00  0.00     0.035 C 
BRANCH  16  17
ATOM     17  C   UNL     1       4.350  -2.546   0.000  1.00  0.00    -0.023 C 
BRANCH  17  18
ATOM     18  C   UNL     1       5.838  -2.359   0.000  1.00  0.00    -0.056 C 
ATOM     19  C   UNL     1       6.744  -3.555   0.000  1.00  0.00     0.044 C 
BRANCH  18  20
ATOM     20  C   UNL     1       6.421  -0.977   0.000  1.00  0.00    -0.005 C 
ATOM     21  C   UNL     1       7.910  -0.791   0.000  1.00  0.00     0.009 C 
ENDBRANCH  18  20
ENDBRANCH  17  18
ENDBRANCH  16  17
ENDBRANCH   1  16
BRANCH   5  22
ATOM     22  O   UNL     1       0.846   2.274   0.000  1.00  0.00    -0.458 OA
BRANCH  22  23
ATOM     23  C   UNL     1       2.181   2.958   0.000  1.00  0.00     0.306 C 
ATOM     24  O   UNL     1       3.441   2.144   0.000  1.00  0.00    -0.252 OA
BRANCH  23  25
ATOM     25  C   UNL     1       2.256   4.456   0.000  1.00  0.00     0.122 C 
BRANCH  25  26
ATOM     26  C   UNL     1       3.591   5.140   0.000  1.00  0.00     0.008 C 
ATOM     27  C   UNL     1       3.666   6.638   0.000  1.00  0.00     0.004 C 
ENDBRANCH  25  26
ENDBRANCH  23  25
ENDBRANCH  22  23
ENDBRANCH   5  22
BRANCH   6  28
ATOM     28  O   UNL     1      -1.824   0.905   0.000  1.00  0.00    -0.457 OA
BRANCH  28  29
ATOM     29  C   UNL     1      -1.749   2.404   0.000  1.00  0.00     0.303 C 
ATOM     30  C   UNL     1      -3.009   3.217   0.000  1.00  0.00     0.139 C 
ATOM     31  O   UNL     1      -0.619   3.390   0.000  1.00  0.00    -0.253 OA
ENDBRANCH  28  29
ENDBRANCH   6  28
BRANCH  10  32
ATOM     32  O   UNL     1      -0.863  -5.901   0.000  1.00  0.00    -0.377 OA
ATOM     33  C   UNL     1      -2.198  -6.585   0.000  1.00  0.00     0.195 C 
ENDBRANCH  10  32
BRANCH  15  34
ATOM     34  O   UNL     1       0.181   1.138   0.000  1.00  0.00    -0.435 OA
BRANCH  34  35
ATOM     35  C   UNL     1      -0.210   2.586   0.000  1.00  0.00     0.304 C 
ATOM     36  C   UNL     1       0.848   3.649   0.000  1.00  0.00     0.139 C 
ATOM     37  O   UNL     1      -1.524   3.310   0.000  1.00  0.00    -0.253 OA
ENDBRANCH  34  35
ENDBRANCH  15  34
BRANCH  13  38
ATOM     38  O   UNL     1      -4.518  -1.271   0.000  1.00  0.00    -0.431 OA
BRANCH  38  39
ATOM     39  C   UNL     1      -5.465  -0.107   0.000  1.00  0.00     0.308 C 
ATOM     40  O   UNL     1      -4.930   1.294   0.000  1.00  0.00    -0.252 OA
BRANCH  39  41
ATOM     41  C   UNL     1      -6.946  -0.346   0.000  1.00  0.00     0.122 C 
BRANCH  41  42
ATOM     42  C   UNL     1      -7.892   0.818   0.000  1.00  0.00     0.008 C 
ATOM     43  C   UNL     1      -9.373   0.580   0.000  1.00  0.00     0.004 C 
ENDBRANCH  41  42
ENDBRANCH  39  41
ENDBRANCH  38  39
ENDBRANCH  13  38
TORSDOF 17
