REMARK SMILES C=C(CC[C@@H](C)[C@H]1CC[C@@]2(C)[C@@H]3CC[C@H]4[C@H](C)[C@@H](O[C@@H]5O[C@H](COC(C)=O)[C@@H](OC(C)=O)[C@H](OC(C)=O)[C@H]5OC(C)=O)CC[C@@]45C[C@@]35CC[C@]12C)C(C)C
REMARK SMILES IDX 7 1 8 2 9 3 10 4 11 5 12 6 13 7 14 8 15 9 16 10 17 11 18 12
REMARK SMILES IDX 43 13 44 14 45 15 46 16 47 17 48 18 49 19 50 20 51 21 5 22
REMARK SMILES IDX 6 23 4 24 3 25 2 26 1 27 52 28 53 29 54 30 19 31 20 32 21 33
REMARK SMILES IDX 38 34 22 35 33 36 28 37 39 38 40 39 41 40 42 41 23 42 24 43
REMARK SMILES IDX 25 44 26 45 27 46 34 47 35 48 36 49 37 50 29 51 30 52 31 53
REMARK SMILES IDX 32 54
REMARK H PARENT
ROOT
ATOM      1  C   UNL     1      -7.162   1.495   0.000  1.00  0.00    -0.002 C 
ATOM      2  C   UNL     1      -7.409   2.974   0.000  1.00  0.00     0.005 C 
ATOM      3  C   UNL     1      -6.079   3.667   0.000  1.00  0.00     0.008 C 
ATOM      4  C   UNL     1      -5.009   2.615   0.000  1.00  0.00    -0.024 C 
ATOM      5  C   UNL     1      -4.484   4.020   0.000  1.00  0.00     0.012 C 
ATOM      6  C   UNL     1      -3.512   2.707   0.000  1.00  0.00     0.002 C 
ATOM      7  C   UNL     1      -2.842   4.049   0.000  1.00  0.00     0.005 C 
ATOM      8  C   UNL     1      -1.345   4.141   0.000  1.00  0.00     0.005 C 
ATOM      9  C   UNL     1      -0.517   2.890   0.000  1.00  0.00     0.001 C 
ATOM     10  C   UNL     1       0.980   2.981   0.000  1.00  0.00     0.019 C 
ATOM     11  C   UNL     1       1.649   4.324   0.000  1.00  0.00     0.011 C 
ATOM     12  C   UNL     1       1.808   1.730   0.000  1.00  0.00     0.124 C 
ATOM     13  C   UNL     1       1.138   0.388   0.000  1.00  0.00     0.033 C 
ATOM     14  C   UNL     1      -0.359   0.297   0.000  1.00  0.00     0.010 C 
ATOM     15  C   UNL     1      -1.187   1.548   0.000  1.00  0.00    -0.020 C 
ATOM     16  C   UNL     1      -1.856   0.205   0.000  1.00  0.00     0.015 C 
ATOM     17  C   UNL     1      -2.684   1.456   0.000  1.00  0.00    -0.020 C 
ATOM     18  C   UNL     1      -3.353   0.114   0.000  1.00  0.00     0.008 C 
ATOM     19  C   UNL     1      -4.851   0.022   0.000  1.00  0.00     0.008 C 
ATOM     20  C   UNL     1      -5.678   1.273   0.000  1.00  0.00    -0.024 C 
ATOM     21  C   UNL     1      -6.484   0.008   0.000  1.00  0.00     0.012 C 
ENDROOT
BRANCH   1  22
ATOM     22  C   UNL     1      -8.213   0.425   0.000  1.00  0.00    -0.010 C 
ATOM     23  C   UNL     1      -9.665   0.800   0.000  1.00  0.00     0.008 C 
BRANCH  22  24
ATOM     24  C   UNL     1      -7.812  -1.021   0.000  1.00  0.00     0.008 C 
BRANCH  24  25
ATOM     25  C   UNL     1      -8.864  -2.090   0.000  1.00  0.00     0.031 C 
BRANCH  25  26
ATOM     26  C   UNL     1      -8.463  -3.536   0.000  1.00  0.00    -0.075 C 
ATOM     27  C   UNL     1      -9.514  -4.606   0.000  1.00  0.00     0.008 C 
BRANCH  26  28
ATOM     28  C   UNL     1      -7.011  -3.912   0.000  1.00  0.00     0.008 C 
ATOM     29  C   UNL     1      -6.610  -5.357   0.000  1.00  0.00     0.012 C 
ATOM     30  C   UNL     1      -5.959  -2.842   0.000  1.00  0.00     0.012 C 
ENDBRANCH  26  28
ENDBRANCH  25  26
ENDBRANCH  24  25
ENDBRANCH  22  24
ENDBRANCH   1  22
BRANCH  12  31
ATOM     31  O   UNL     1       3.305   1.822   0.000  1.00  0.00    -0.345 OA
BRANCH  31  32
ATOM     32  C   UNL     1       4.133   0.571   0.000  1.00  0.00     0.296 C 
ATOM     33  O   UNL     1       3.463  -0.771   0.000  1.00  0.00    -0.338 OA
ATOM     34  C   UNL     1       5.630   0.663   0.000  1.00  0.00     0.277 C 
ATOM     35  C   UNL     1       4.291  -2.022   0.000  1.00  0.00     0.204 C 
ATOM     36  C   UNL     1       6.458  -0.588   0.000  1.00  0.00     0.266 C 
ATOM     37  C   UNL     1       5.788  -1.931   0.000  1.00  0.00     0.253 C 
BRANCH  34  38
ATOM     38  O   UNL     1       6.299   2.005   0.000  1.00  0.00    -0.453 OA
BRANCH  38  39
ATOM     39  C   UNL     1       5.471   3.256   0.000  1.00  0.00     0.303 C 
ATOM     40  C   UNL     1       6.141   4.598   0.000  1.00  0.00     0.139 C 
ATOM     41  O   UNL     1       3.974   3.164   0.000  1.00  0.00    -0.253 OA
ENDBRANCH  38  39
ENDBRANCH  34  38
BRANCH  35  42
ATOM     42  C   UNL     1       3.622  -3.364   0.000  1.00  0.00     0.269 C 
BRANCH  42  43
ATOM     43  O   UNL     1       2.125  -3.456   0.000  1.00  0.00    -0.463 OA
BRANCH  43  44
ATOM     44  C   UNL     1       1.455  -4.798   0.000  1.00  0.00     0.302 C 
ATOM     45  C   UNL     1      -0.042  -4.890   0.000  1.00  0.00     0.139 C 
ATOM     46  O   UNL     1       2.283  -6.049   0.000  1.00  0.00    -0.253 OA
ENDBRANCH  43  44
ENDBRANCH  42  43
ENDBRANCH  35  42
BRANCH  36  47
ATOM     47  O   UNL     1       7.955  -0.497   0.000  1.00  0.00    -0.454 OA
BRANCH  47  48
ATOM     48  C   UNL     1       8.624   0.846   0.000  1.00  0.00     0.303 C 
ATOM     49  C   UNL     1      10.122   0.937   0.000  1.00  0.00     0.139 C 
ATOM     50  O   UNL     1       7.796   2.097   0.000  1.00  0.00    -0.253 OA
ENDBRANCH  47  48
ENDBRANCH  36  47
BRANCH  37  51
ATOM     51  O   UNL     1       6.616  -3.181   0.000  1.00  0.00    -0.455 OA
BRANCH  51  52
ATOM     52  C   UNL     1       8.114  -3.090   0.000  1.00  0.00     0.303 C 
ATOM     53  C   UNL     1       8.941  -4.341   0.000  1.00  0.00     0.139 C 
ATOM     54  O   UNL     1       8.783  -1.748   0.000  1.00  0.00    -0.253 OA
ENDBRANCH  51  52
ENDBRANCH  37  51
ENDBRANCH  31  32
ENDBRANCH  12  31
TORSDOF 16
