REMARK SMILES COc1c2ccoc2nc2c(OC)c3c(cc12)OCO3
REMARK SMILES IDX 3 1 4 2 5 3 6 4 7 5 8 6 9 7 10 8 11 9 14 10 15 11 16 12
REMARK SMILES IDX 17 13 18 14 19 15 20 16 2 17 1 18 12 19 13 20
REMARK H PARENT
ROOT
ATOM      1  C   UNL     1      -1.631  -1.130   0.000  1.00  0.00     0.141 A 
ATOM      2  C   UNL     1      -2.703  -0.080   0.000  1.00  0.00     0.083 A 
ATOM      3  C   UNL     1      -4.200  -0.174   0.000  1.00  0.00     0.056 A 
ATOM      4  C   UNL     1      -4.752   1.221   0.000  1.00  0.00     0.198 A 
ATOM      5  O   UNL     1      -3.596   2.177   0.000  1.00  0.00    -0.446 OA
ATOM      6  C   UNL     1      -2.330   1.373   0.000  1.00  0.00     0.230 A 
ATOM      7  N   UNL     1      -0.885   1.776   0.000  1.00  0.00    -0.208 NA
ATOM      8  C   UNL     1       0.187   0.726   0.000  1.00  0.00     0.124 A 
ATOM      9  C   UNL     1       1.631   1.130   0.000  1.00  0.00     0.191 A 
ATOM     10  C   UNL     1       2.703   0.080   0.000  1.00  0.00     0.209 A 
ATOM     11  C   UNL     1       2.330  -1.373   0.000  1.00  0.00     0.170 A 
ATOM     12  C   UNL     1       0.885  -1.776   0.000  1.00  0.00     0.065 A 
ATOM     13  C   UNL     1      -0.187  -0.726   0.000  1.00  0.00     0.051 A 
ATOM     14  O   UNL     1       3.596  -2.177   0.000  1.00  0.00    -0.453 OA
ATOM     15  C   UNL     1       4.752  -1.221   0.000  1.00  0.00     0.468 C 
ATOM     16  O   UNL     1       4.200   0.174   0.000  1.00  0.00    -0.450 OA
ENDROOT
BRANCH   1  17
ATOM     17  O   UNL     1      -2.005  -2.582   0.000  1.00  0.00    -0.495 OA
ATOM     18  C   UNL     1      -3.450  -2.986   0.000  1.00  0.00     0.278 C 
ENDBRANCH   1  17
BRANCH   9  19
ATOM     19  O   UNL     1       2.005   2.582   0.000  1.00  0.00    -0.491 OA
ATOM     20  C   UNL     1       3.450   2.986   0.000  1.00  0.00     0.278 C 
ENDBRANCH   9  19
TORSDOF 2
