REMARK SMILES C[C@@H]1O[C@@H](OC[C@H]2O[C@@H](O[C@@H]3[C@@H](O)[C@H](C)O[C@@H](O[C@H]4[C@H](Oc5c(-c6ccc(O)c(O)c6)oc6cc(O)cc(O)c6c5=O)O[C@H](CO)[C@@H](O)[C@@H]4O)[C@@H]3O)[C@H](O)[C@@H](O)[C@@H]2O)[C@H](O)[C@H](O)[C@H]1O
REMARK SMILES IDX 11 1 12 2 14 3 15 4 16 5 17 6 51 7 10 8 9 9 7 10 8 11 57 12
REMARK SMILES IDX 55 13 53 14 6 15 5 16 4 17 2 18 3 19 63 20 61 21 59 22 1 23
REMARK SMILES IDX 64 24 62 26 60 28 58 30 56 32 54 34 13 36 52 38 18 40 19 41
REMARK SMILES IDX 20 42 49 43 43 44 47 45 44 46 21 47 22 48 23 49 41 50 32 51
REMARK SMILES IDX 40 52 33 53 38 54 34 55 37 56 35 57 42 58 24 59 25 60 31 61
REMARK SMILES IDX 26 62 29 63 27 64 30 65 28 67 39 69 36 71 50 73 48 75 45 77
REMARK SMILES IDX 46 78
REMARK H PARENT 64 25 62 27 60 29 58 31 56 33 54 35 13 37 52 39 30 66 28 68
REMARK H PARENT 39 70 36 72 50 74 48 76 46 79
ROOT
ATOM      1  C   UNL     1      -2.044  -1.590   0.000  1.00  0.00     0.186 C 
ATOM      2  C   UNL     1      -2.848  -0.324   0.000  1.00  0.00     0.175 C 
ATOM      3  C   UNL     1      -2.154   1.005   0.000  1.00  0.00     0.150 C 
ATOM      4  C   UNL     1      -2.959   2.271   0.000  1.00  0.00     0.041 C 
ATOM      5  O   UNL     1      -0.655   1.069   0.000  1.00  0.00    -0.344 OA
ATOM      6  C   UNL     1       0.149  -0.197   0.000  1.00  0.00     0.282 C 
ATOM      7  C   UNL     1      -0.545  -1.527   0.000  1.00  0.00     0.202 C 
ENDROOT
BRANCH   1   8
ATOM      8  O   UNL     1      -2.738  -2.920   0.000  1.00  0.00    -0.341 OA
BRANCH   8   9
ATOM      9  C   UNL     1      -4.236  -2.984   0.000  1.00  0.00     0.282 C 
ATOM     10  C   UNL     1      -6.540  -1.782   0.000  1.00  0.00     0.178 C 
ATOM     11  O   UNL     1      -5.041  -1.718   0.000  1.00  0.00    -0.341 OA
ATOM     12  C   UNL     1      -7.234  -3.111   0.000  1.00  0.00     0.177 C 
ATOM     13  C   UNL     1      -6.429  -4.377   0.000  1.00  0.00     0.179 C 
ATOM     14  C   UNL     1      -4.931  -4.314   0.000  1.00  0.00     0.202 C 
BRANCH  10  15
ATOM     15  C   UNL     1      -7.344  -0.516   0.000  1.00  0.00     0.198 C 
BRANCH  15  16
ATOM     16  O   UNL     1      -8.843  -0.579   0.000  1.00  0.00    -0.347 OA
BRANCH  16  17
ATOM     17  C   UNL     1      -9.647   0.687   0.000  1.00  0.00     0.281 C 
ATOM     18  C   UNL     1     -11.950   1.889   0.000  1.00  0.00     0.150 C 
ATOM     19  O   UNL     1     -11.146   0.623   0.000  1.00  0.00    -0.344 OA
ATOM     20  C   UNL     1     -11.256   3.219   0.000  1.00  0.00     0.174 C 
ATOM     21  C   UNL     1      -9.758   3.282   0.000  1.00  0.00     0.179 C 
ATOM     22  C   UNL     1      -8.953   2.016   0.000  1.00  0.00     0.202 C 
ATOM     23  C   UNL     1     -13.449   1.825   0.000  1.00  0.00     0.041 C 
BRANCH  20  24
ATOM     24  O   UNL     1     -12.061   4.485   0.000  1.00  0.00    -0.388 OA
ATOM     25  H   UNL     1       0.000   0.000   0.000  1.00  0.00     0.211 HD
ENDBRANCH  20  24
BRANCH  21  26
ATOM     26  O   UNL     1      -9.064   4.612   0.000  1.00  0.00    -0.387 OA
ATOM     27  H   UNL     1       0.000   0.000   0.000  1.00  0.00     0.211 HD
ENDBRANCH  21  26
BRANCH  22  28
ATOM     28  O   UNL     1      -7.455   2.080   0.000  1.00  0.00    -0.385 OA
ATOM     29  H   UNL     1       0.000   0.000   0.000  1.00  0.00     0.211 HD
ENDBRANCH  22  28
ENDBRANCH  16  17
ENDBRANCH  15  16
ENDBRANCH  10  15
BRANCH  12  30
ATOM     30  O   UNL     1      -8.732  -3.175   0.000  1.00  0.00    -0.387 OA
ATOM     31  H   UNL     1       0.000   0.000   0.000  1.00  0.00     0.211 HD
ENDBRANCH  12  30
BRANCH  13  32
ATOM     32  O   UNL     1      -7.123  -5.707   0.000  1.00  0.00    -0.387 OA
ATOM     33  H   UNL     1       0.000   0.000   0.000  1.00  0.00     0.211 HD
ENDBRANCH  13  32
BRANCH  14  34
ATOM     34  O   UNL     1      -4.126  -5.580   0.000  1.00  0.00    -0.385 OA
ATOM     35  H   UNL     1       0.000   0.000   0.000  1.00  0.00     0.211 HD
ENDBRANCH  14  34
ENDBRANCH   8   9
ENDBRANCH   1   8
BRANCH   2  36
ATOM     36  O   UNL     1      -4.347  -0.388   0.000  1.00  0.00    -0.388 OA
ATOM     37  H   UNL     1       0.000   0.000   0.000  1.00  0.00     0.211 HD
ENDBRANCH   2  36
BRANCH   7  38
ATOM     38  O   UNL     1       0.260  -2.792   0.000  1.00  0.00    -0.385 OA
ATOM     39  H   UNL     1       0.000   0.000   0.000  1.00  0.00     0.211 HD
ENDBRANCH   7  38
BRANCH   6  40
ATOM     40  O   UNL     1       1.648  -0.133   0.000  1.00  0.00    -0.337 OA
BRANCH  40  41
ATOM     41  C   UNL     1       2.342   1.197   0.000  1.00  0.00     0.221 C 
ATOM     42  C   UNL     1       3.841   1.260   0.000  1.00  0.00     0.340 C 
ATOM     43  C   UNL     1       1.537   2.463   0.000  1.00  0.00     0.181 C 
ATOM     44  O   UNL     1       4.535   2.590   0.000  1.00  0.00    -0.332 OA
ATOM     45  C   UNL     1       2.232   3.792   0.000  1.00  0.00     0.177 C 
ATOM     46  C   UNL     1       3.730   3.856   0.000  1.00  0.00     0.179 C 
BRANCH  42  47
ATOM     47  O   UNL     1       4.645  -0.006   0.000  1.00  0.00    -0.454 OA
BRANCH  47  48
ATOM     48  C   UNL     1       6.144   0.058   0.000  1.00  0.00     0.214 A 
ATOM     49  C   UNL     1       6.948  -1.208   0.000  1.00  0.00     0.180 A 
ATOM     50  C   UNL     1       6.838   1.388   0.000  1.00  0.00     0.239 A 
ATOM     51  O   UNL     1       8.447  -1.144   0.000  1.00  0.00    -0.452 OA
ATOM     52  C   UNL     1       8.336   1.452   0.000  1.00  0.00     0.111 A 
ATOM     53  C   UNL     1       9.141   0.186   0.000  1.00  0.00     0.146 A 
ATOM     54  C   UNL     1       9.031   2.781   0.000  1.00  0.00     0.134 A 
ATOM     55  C   UNL     1      10.640   0.249   0.000  1.00  0.00     0.094 A 
ATOM     56  C   UNL     1      10.529   2.845   0.000  1.00  0.00     0.093 A 
ATOM     57  C   UNL     1      11.334   1.579   0.000  1.00  0.00     0.123 A 
ATOM     58  O   UNL     1       6.033   2.654   0.000  1.00  0.00    -0.285 OA
BRANCH  49  59
ATOM     59  C   UNL     1       6.254  -2.538   0.000  1.00  0.00     0.025 A 
ATOM     60  C   UNL     1       4.755  -2.601   0.000  1.00  0.00     0.016 A 
ATOM     61  C   UNL     1       7.059  -3.804   0.000  1.00  0.00     0.062 A 
ATOM     62  C   UNL     1       4.061  -3.931   0.000  1.00  0.00     0.051 A 
ATOM     63  C   UNL     1       6.364  -5.133   0.000  1.00  0.00     0.158 A 
ATOM     64  C   UNL     1       4.866  -5.197   0.000  1.00  0.00     0.157 A 
BRANCH  63  65
ATOM     65  O   UNL     1       7.169  -6.399   0.000  1.00  0.00    -0.504 OA
ATOM     66  H   UNL     1       0.000   0.000   0.000  1.00  0.00     0.293 HD
ENDBRANCH  63  65
BRANCH  64  67
ATOM     67  O   UNL     1       4.172  -6.527   0.000  1.00  0.00    -0.504 OA
ATOM     68  H   UNL     1       0.000   0.000   0.000  1.00  0.00     0.293 HD
ENDBRANCH  64  67
ENDBRANCH  49  59
BRANCH  54  69
ATOM     69  O   UNL     1       8.226   4.047   0.000  1.00  0.00    -0.507 OA
ATOM     70  H   UNL     1       0.000   0.000   0.000  1.00  0.00     0.293 HD
ENDBRANCH  54  69
BRANCH  57  71
ATOM     71  O   UNL     1      12.832   1.643   0.000  1.00  0.00    -0.508 OA
ATOM     72  H   UNL     1       0.000   0.000   0.000  1.00  0.00     0.293 HD
ENDBRANCH  57  71
ENDBRANCH  47  48
ENDBRANCH  42  47
BRANCH  43  73
ATOM     73  O   UNL     1       0.039   2.399   0.000  1.00  0.00    -0.387 OA
ATOM     74  H   UNL     1       0.000   0.000   0.000  1.00  0.00     0.211 HD
ENDBRANCH  43  73
BRANCH  45  75
ATOM     75  O   UNL     1       1.427   5.058   0.000  1.00  0.00    -0.387 OA
ATOM     76  H   UNL     1       0.000   0.000   0.000  1.00  0.00     0.211 HD
ENDBRANCH  45  75
BRANCH  46  77
ATOM     77  C   UNL     1       4.424   5.186   0.000  1.00  0.00     0.191 C 
BRANCH  77  78
ATOM     78  O   UNL     1       3.620   6.452   0.000  1.00  0.00    -0.394 OA
ATOM     79  H   UNL     1       0.000   0.000   0.000  1.00  0.00     0.210 HD
ENDBRANCH  77  78
ENDBRANCH  46  77
ENDBRANCH  40  41
ENDBRANCH   6  40
TORSDOF 26
