REMARK SMILES COc1cc(O)c2c(=O)c(O[C@@H]3O[C@H](CO[C@@H]4O[C@@H](C)[C@H](O)[C@@H](O)[C@H]4O)[C@@H](O)[C@H](O)[C@H]3O)c(-c3ccc(O)c(OC)c3)oc2c1
REMARK SMILES IDX 12 1 13 2 14 3 27 4 29 5 31 6 11 7 10 8 3 9 4 10 45 11 5 12
REMARK SMILES IDX 44 13 7 14 43 15 8 16 33 17 9 18 2 19 1 20 6 21 34 23 35 24
REMARK SMILES IDX 42 25 36 26 39 27 37 28 40 29 41 30 38 31 32 33 15 35 16 36
REMARK SMILES IDX 17 37 18 38 25 39 19 40 23 41 21 42 20 43 26 44 24 46 22 48
REMARK SMILES IDX 30 50 28 52
REMARK H PARENT 6 22 38 32 32 34 26 45 24 47 22 49 30 51 28 53
ROOT
ATOM      1  C   UNL     1       0.820   2.133   0.000  1.00  0.00     0.339 C 
ATOM      2  O   UNL     1      -0.406   1.268   0.000  1.00  0.00    -0.332 OA
ATOM      3  C   UNL     1      -1.768   1.897   0.000  1.00  0.00     0.180 C 
ATOM      4  C   UNL     1      -1.904   3.391   0.000  1.00  0.00     0.177 C 
ATOM      5  C   UNL     1      -0.679   4.256   0.000  1.00  0.00     0.180 C 
ATOM      6  C   UNL     1       0.683   3.627   0.000  1.00  0.00     0.214 C 
ENDROOT
BRANCH   1   7
ATOM      7  O   UNL     1       2.182   1.505   0.000  1.00  0.00    -0.454 OA
BRANCH   7   8
ATOM      8  C   UNL     1       2.318   0.011   0.000  1.00  0.00     0.214 A 
ATOM      9  C   UNL     1       1.502  -5.335   0.000  1.00  0.00     0.126 A 
ATOM     10  C   UNL     1       0.140  -4.707   0.000  1.00  0.00     0.093 A 
ATOM     11  C   UNL     1       2.727  -4.470   0.000  1.00  0.00     0.094 A 
ATOM     12  C   UNL     1       0.004  -3.213   0.000  1.00  0.00     0.134 A 
ATOM     13  C   UNL     1       2.591  -2.977   0.000  1.00  0.00     0.146 A 
ATOM     14  C   UNL     1       1.229  -2.348   0.000  1.00  0.00     0.111 A 
ATOM     15  O   UNL     1       3.816  -2.111   0.000  1.00  0.00    -0.452 OA
ATOM     16  C   UNL     1       1.093  -0.854   0.000  1.00  0.00     0.239 A 
ATOM     17  C   UNL     1       3.680  -0.618   0.000  1.00  0.00     0.180 A 
ATOM     18  O   UNL     1      -0.269  -0.225   0.000  1.00  0.00    -0.285 OA
BRANCH   9  19
ATOM     19  O   UNL     1       1.639  -6.829   0.000  1.00  0.00    -0.496 OA
ATOM     20  C   UNL     1       0.413  -7.694   0.000  1.00  0.00     0.278 C 
ENDBRANCH   9  19
BRANCH  12  21
ATOM     21  O   UNL     1      -1.358  -2.584   0.000  1.00  0.00    -0.507 OA
ATOM     22  H   UNL     1       0.000   0.000   0.000  1.00  0.00     0.293 HD
ENDBRANCH  12  21
BRANCH  17  23
ATOM     23  C   UNL     1       4.905   0.247   0.000  1.00  0.00     0.025 A 
ATOM     24  C   UNL     1       4.769   1.741   0.000  1.00  0.00     0.016 A 
ATOM     25  C   UNL     1       6.267  -0.381   0.000  1.00  0.00     0.062 A 
ATOM     26  C   UNL     1       5.994   2.606   0.000  1.00  0.00     0.051 A 
ATOM     27  C   UNL     1       7.493   0.484   0.000  1.00  0.00     0.161 A 
ATOM     28  C   UNL     1       7.356   1.978   0.000  1.00  0.00     0.157 A 
BRANCH  27  29
ATOM     29  O   UNL     1       8.854  -0.145   0.000  1.00  0.00    -0.493 OA
ATOM     30  C   UNL     1      10.080   0.720   0.000  1.00  0.00     0.278 C 
ENDBRANCH  27  29
BRANCH  28  31
ATOM     31  O   UNL     1       8.582   2.843   0.000  1.00  0.00    -0.504 OA
ATOM     32  H   UNL     1       0.000   0.000   0.000  1.00  0.00     0.293 HD
ENDBRANCH  28  31
ENDBRANCH  17  23
ENDBRANCH   7   8
ENDBRANCH   1   7
BRANCH   6  33
ATOM     33  O   UNL     1       1.909   4.492   0.000  1.00  0.00    -0.384 OA
ATOM     34  H   UNL     1       0.000   0.000   0.000  1.00  0.00     0.211 HD
ENDBRANCH   6  33
BRANCH   3  35
ATOM     35  C   UNL     1      -2.993   1.032   0.000  1.00  0.00     0.198 C 
BRANCH  35  36
ATOM     36  O   UNL     1      -4.355   1.661   0.000  1.00  0.00    -0.347 OA
BRANCH  36  37
ATOM     37  C   UNL     1      -5.580   0.796   0.000  1.00  0.00     0.281 C 
ATOM     38  O   UNL     1      -5.444  -0.698   0.000  1.00  0.00    -0.344 OA
ATOM     39  C   UNL     1      -6.942   1.424   0.000  1.00  0.00     0.202 C 
ATOM     40  C   UNL     1      -6.669  -1.563   0.000  1.00  0.00     0.150 C 
ATOM     41  C   UNL     1      -8.168   0.559   0.000  1.00  0.00     0.179 C 
ATOM     42  C   UNL     1      -8.031  -0.935   0.000  1.00  0.00     0.174 C 
ATOM     43  C   UNL     1      -6.533  -3.057   0.000  1.00  0.00     0.041 C 
BRANCH  39  44
ATOM     44  O   UNL     1      -7.079   2.918   0.000  1.00  0.00    -0.385 OA
ATOM     45  H   UNL     1       0.000   0.000   0.000  1.00  0.00     0.211 HD
ENDBRANCH  39  44
BRANCH  41  46
ATOM     46  O   UNL     1      -9.530   1.188   0.000  1.00  0.00    -0.387 OA
ATOM     47  H   UNL     1       0.000   0.000   0.000  1.00  0.00     0.211 HD
ENDBRANCH  41  46
BRANCH  42  48
ATOM     48  O   UNL     1      -9.257  -1.800   0.000  1.00  0.00    -0.388 OA
ATOM     49  H   UNL     1       0.000   0.000   0.000  1.00  0.00     0.211 HD
ENDBRANCH  42  48
ENDBRANCH  36  37
ENDBRANCH  35  36
ENDBRANCH   3  35
BRANCH   5  50
ATOM     50  O   UNL     1      -0.815   5.750   0.000  1.00  0.00    -0.387 OA
ATOM     51  H   UNL     1       0.000   0.000   0.000  1.00  0.00     0.211 HD
ENDBRANCH   5  50
BRANCH   4  52
ATOM     52  O   UNL     1      -3.266   4.019   0.000  1.00  0.00    -0.387 OA
ATOM     53  H   UNL     1       0.000   0.000   0.000  1.00  0.00     0.211 HD
ENDBRANCH   4  52
TORSDOF 16
