REMARK SMILES COC(=O)[C@@H]1c2ccoc2C[C@H]2[C@H]1[C@@H](O)[C@H](O)[C@H]1C(C)(C)CCC[C@]21C
REMARK SMILES IDX 5 1 6 2 10 3 11 4 12 5 13 6 14 7 16 8 18 9 19 10 20 11 21 12
REMARK SMILES IDX 22 13 23 14 24 15 25 16 26 17 9 18 8 19 7 20 3 21 4 22 2 23
REMARK SMILES IDX 1 24 15 25 17 27
REMARK H PARENT 15 26 17 28
ROOT
ATOM      1  C   UNL     1      -2.092   0.394   0.000  1.00  0.00     0.139 C 
ATOM      2  C   UNL     1      -2.901  -0.869   0.000  1.00  0.00     0.008 A 
ATOM      3  C   UNL     1      -2.211  -2.201   0.000  1.00  0.00     0.108 A 
ATOM      4  C   UNL     1      -0.713  -2.270   0.000  1.00  0.00     0.080 C 
ATOM      5  C   UNL     1       0.096  -1.007   0.000  1.00  0.00     0.010 C 
ATOM      6  C   UNL     1      -0.594   0.325   0.000  1.00  0.00     0.043 C 
ATOM      7  C   UNL     1       0.215   1.588   0.000  1.00  0.00     0.148 C 
ATOM      8  C   UNL     1       1.714   1.520   0.000  1.00  0.00     0.147 C 
ATOM      9  C   UNL     1       2.403   0.187   0.000  1.00  0.00     0.032 C 
ATOM     10  C   UNL     1       3.902   0.119   0.000  1.00  0.00    -0.029 C 
ATOM     11  C   UNL     1       5.333   0.567   0.000  1.00  0.00     0.011 C 
ATOM     12  C   UNL     1       3.709   1.606   0.000  1.00  0.00     0.011 C 
ATOM     13  C   UNL     1       4.591  -1.213   0.000  1.00  0.00     0.007 C 
ATOM     14  C   UNL     1       3.783  -2.477   0.000  1.00  0.00     0.001 C 
ATOM     15  C   UNL     1       2.284  -2.408   0.000  1.00  0.00     0.007 C 
ATOM     16  C   UNL     1       1.595  -1.076   0.000  1.00  0.00    -0.023 C 
ATOM     17  C   UNL     1       0.786  -2.339   0.000  1.00  0.00     0.012 C 
ATOM     18  O   UNL     1      -3.265  -3.269   0.000  1.00  0.00    -0.469 OA
ATOM     19  C   UNL     1      -4.606  -2.597   0.000  1.00  0.00     0.195 A 
ATOM     20  C   UNL     1      -4.381  -1.114   0.000  1.00  0.00     0.047 A 
ENDROOT
BRANCH   1  21
ATOM     21  C   UNL     1      -2.782   1.726   0.000  1.00  0.00     0.313 C 
ATOM     22  O   UNL     1      -4.280   1.795   0.000  1.00  0.00    -0.252 OA
BRANCH  21  23
ATOM     23  O   UNL     1      -1.973   2.989   0.000  1.00  0.00    -0.469 OA
ATOM     24  C   UNL     1      -2.662   4.321   0.000  1.00  0.00     0.282 C 
ENDBRANCH  21  23
ENDBRANCH   1  21
BRANCH   7  25
ATOM     25  O   UNL     1      -0.474   2.920   0.000  1.00  0.00    -0.390 OA
ATOM     26  H   UNL     1       0.000   0.000   0.000  1.00  0.00     0.211 HD
ENDBRANCH   7  25
BRANCH   8  27
ATOM     27  O   UNL     1       2.522   2.783   0.000  1.00  0.00    -0.390 OA
ATOM     28  H   UNL     1       0.000   0.000   0.000  1.00  0.00     0.211 HD
ENDBRANCH   8  27
TORSDOF 4
