REMARK SMILES C[C@@H]1CC[C@H]2[C@@](C)(CO)[C@H]3C[C@@]12CC[C@]3(C)O
REMARK SMILES IDX 1 1 2 2 3 3 4 4 5 5 6 6 7 7 10 8 11 9 12 10 13 11 14 12
REMARK SMILES IDX 15 13 16 14 8 15 9 16 17 18
REMARK H PARENT 9 17 17 19
ROOT
ATOM      1  C   UNL     1      -3.566  -1.454   0.000  1.00  0.00     0.008 C 
ATOM      2  C   UNL     1      -2.675  -0.247   0.000  1.00  0.00    -0.008 C 
ATOM      3  C   UNL     1      -3.128   1.183   0.000  1.00  0.00     0.004 C 
ATOM      4  C   UNL     1      -1.908   2.055   0.000  1.00  0.00     0.005 C 
ATOM      5  C   UNL     1      -0.701   1.165   0.000  1.00  0.00     0.004 C 
ATOM      6  C   UNL     1       0.799   1.153   0.000  1.00  0.00    -0.000 C 
ATOM      7  C   UNL     1       0.654   2.646   0.000  1.00  0.00     0.014 C 
ATOM      8  C   UNL     1       1.423  -0.278   0.000  1.00  0.00     0.030 C 
ATOM      9  C   UNL     1       0.130   0.481   0.000  1.00  0.00     0.014 C 
ATOM     10  C   UNL     1      -1.175  -0.259   0.000  1.00  0.00    -0.023 C 
ATOM     11  C   UNL     1      -1.187  -1.758   0.000  1.00  0.00     0.010 C 
ATOM     12  C   UNL     1       0.107  -2.518   0.000  1.00  0.00     0.036 C 
ATOM     13  C   UNL     1       1.411  -1.778   0.000  1.00  0.00     0.065 C 
ATOM     14  C   UNL     1       2.891  -1.529   0.000  1.00  0.00     0.042 C 
ENDROOT
BRANCH   6  15
ATOM     15  C   UNL     1       2.269   1.454   0.000  1.00  0.00     0.163 C 
BRANCH  15  16
ATOM     16  O   UNL     1       2.743   2.877   0.000  1.00  0.00    -0.396 OA
ATOM     17  H   UNL     1       0.000   0.000   0.000  1.00  0.00     0.210 HD
ENDBRANCH  15  16
ENDBRANCH   6  15
BRANCH  13  18
ATOM     18  O   UNL     1       1.914  -3.192   0.000  1.00  0.00    -0.390 OA
ATOM     19  H   UNL     1       0.000   0.000   0.000  1.00  0.00     0.211 HD
ENDBRANCH  13  18
TORSDOF 3
