REMARK SMILES O=c1cc(-c2ccc(O)cc2)oc2cc(O)cc(O)c12
REMARK SMILES IDX 1 1 2 2 3 3 4 4 12 5 13 6 14 7 15 8 17 9 18 10 20 11 5 12
REMARK SMILES IDX 6 13 11 14 7 15 10 16 8 17 9 18 19 20 16 22
REMARK H PARENT 9 19 19 21 16 23
ROOT
ATOM      1  O   UNL     1       1.799  -3.194   0.000  1.00  0.00    -0.289 OA
ATOM      2  C   UNL     1       1.231  -1.806   0.000  1.00  0.00     0.197 A 
ATOM      3  C   UNL     1      -0.256  -1.604   0.000  1.00  0.00     0.100 A 
ATOM      4  C   UNL     1      -0.824  -0.216   0.000  1.00  0.00     0.138 A 
ATOM      5  O   UNL     1       0.094   0.971   0.000  1.00  0.00    -0.456 OA
ATOM      6  C   UNL     1       1.580   0.769   0.000  1.00  0.00     0.146 A 
ATOM      7  C   UNL     1       2.498   1.955   0.000  1.00  0.00     0.094 A 
ATOM      8  C   UNL     1       3.985   1.754   0.000  1.00  0.00     0.123 A 
ATOM      9  C   UNL     1       4.553   0.365   0.000  1.00  0.00     0.093 A 
ATOM     10  C   UNL     1       3.635  -0.821   0.000  1.00  0.00     0.134 A 
ATOM     11  C   UNL     1       2.149  -0.619   0.000  1.00  0.00     0.107 A 
ENDROOT
BRANCH   4  12
ATOM     12  C   UNL     1      -2.310  -0.014   0.000  1.00  0.00     0.018 A 
ATOM     13  C   UNL     1      -2.879   1.374   0.000  1.00  0.00     0.016 A 
ATOM     14  C   UNL     1      -3.228  -1.201   0.000  1.00  0.00     0.016 A 
ATOM     15  C   UNL     1      -4.365   1.575   0.000  1.00  0.00     0.047 A 
ATOM     16  C   UNL     1      -4.715  -0.999   0.000  1.00  0.00     0.047 A 
ATOM     17  C   UNL     1      -5.283   0.389   0.000  1.00  0.00     0.115 A 
BRANCH  17  18
ATOM     18  O   UNL     1      -6.769   0.591   0.000  1.00  0.00    -0.508 OA
ATOM     19  H   UNL     1       0.000   0.000   0.000  1.00  0.00     0.293 HD
ENDBRANCH  17  18
ENDBRANCH   4  12
BRANCH  10  20
ATOM     20  O   UNL     1       4.204  -2.209   0.000  1.00  0.00    -0.507 OA
ATOM     21  H   UNL     1       0.000   0.000   0.000  1.00  0.00     0.293 HD
ENDBRANCH  10  20
BRANCH   8  22
ATOM     22  O   UNL     1       4.902   2.940   0.000  1.00  0.00    -0.508 OA
ATOM     23  H   UNL     1       0.000   0.000   0.000  1.00  0.00     0.293 HD
ENDBRANCH   8  22
TORSDOF 4
