REMARK SMILES C[C@H]1[C@H](C)CC[C@]2(C(=O)O)CC[C@]3(C)C4=CC[C@H]5C(C)(C)C(=O)CC[C@]5(C)[C@H]4CC[C@@]3(C)[C@H]12
REMARK SMILES IDX 8 1 9 2 7 3 2 4 3 5 33 6 5 7 31 8 6 9 30 10 13 11 11 12
REMARK SMILES IDX 29 13 12 14 15 15 28 16 16 17 26 18 17 19 25 20 18 21 24 22
REMARK SMILES IDX 19 23 22 24 1 25 4 26 32 27 14 28 27 29 20 30 21 31 23 32
REMARK SMILES IDX 10 33
REMARK H PARENT 10 34
ROOT
ATOM      1  C   UNL     1      -4.329   2.123   0.000  1.00  0.00     0.309 C 
ATOM      2  O   UNL     1      -5.829   2.157   0.000  1.00  0.00    -0.252 OA
ENDROOT
BRANCH   1   3
ATOM      3  C   UNL     1      -3.609   0.808   0.000  1.00  0.00     0.072 C 
ATOM      4  C   UNL     1      -3.667  -1.790   0.000  1.00  0.00    -0.007 C 
ATOM      5  C   UNL     1      -5.166  -1.756   0.000  1.00  0.00    -0.011 C 
ATOM      6  C   UNL     1      -2.888  -0.508   0.000  1.00  0.00     0.016 C 
ATOM      7  C   UNL     1      -5.887  -0.441   0.000  1.00  0.00     0.005 C 
ATOM      8  C   UNL     1      -1.388  -0.541   0.000  1.00  0.00    -0.019 C 
ATOM      9  C   UNL     1      -5.108   0.841   0.000  1.00  0.00     0.019 C 
ATOM     10  C   UNL     1      -0.667  -1.857   0.000  1.00  0.00     0.008 C 
ATOM     11  C   UNL     1      -0.609   0.741   0.000  1.00  0.00    -0.006 C 
ATOM     12  C   UNL     1      -2.830   2.090   0.000  1.00  0.00     0.020 C 
ATOM     13  C   UNL     1       0.832  -1.890   0.000  1.00  0.00     0.009 C 
ATOM     14  C   UNL     1      -1.330   2.056   0.000  1.00  0.00     0.013 C 
ATOM     15  C   UNL     1       0.890   0.707   0.000  1.00  0.00    -0.064 C 
ATOM     16  C   UNL     1       1.611  -0.608   0.000  1.00  0.00     0.021 C 
ATOM     17  C   UNL     1       1.669   1.989   0.000  1.00  0.00    -0.027 C 
ATOM     18  C   UNL     1       3.111  -0.642   0.000  1.00  0.00    -0.022 C 
ATOM     19  C   UNL     1       3.169   1.956   0.000  1.00  0.00     0.032 C 
ATOM     20  C   UNL     1       3.832  -1.957   0.000  1.00  0.00     0.015 C 
ATOM     21  C   UNL     1       3.889   0.640   0.000  1.00  0.00     0.012 C 
ATOM     22  C   UNL     1       5.331  -1.991   0.000  1.00  0.00     0.077 C 
ATOM     23  C   UNL     1       5.389   0.607   0.000  1.00  0.00     0.027 C 
ATOM     24  C   UNL     1       6.110  -0.709   0.000  1.00  0.00     0.138 C 
ATOM     25  C   UNL     1      -2.946  -3.105   0.000  1.00  0.00     0.008 C 
ATOM     26  C   UNL     1      -5.945  -3.038   0.000  1.00  0.00     0.008 C 
ATOM     27  C   UNL     1      -2.167  -1.823   0.000  1.00  0.00     0.012 C 
ATOM     28  C   UNL     1       0.170   2.023   0.000  1.00  0.00     0.017 C 
ATOM     29  C   UNL     1       2.332  -1.924   0.000  1.00  0.00     0.012 C 
ATOM     30  C   UNL     1       6.810   1.088   0.000  1.00  0.00     0.020 C 
ATOM     31  C   UNL     1       5.162   2.089   0.000  1.00  0.00     0.020 C 
ATOM     32  O   UNL     1       7.610  -0.742   0.000  1.00  0.00    -0.299 OA
ENDBRANCH   1   3
BRANCH   1  33
ATOM     33  O   UNL     1      -3.551   3.405   0.000  1.00  0.00    -0.481 OA
ATOM     34  H   UNL     1       0.000   0.000   0.000  1.00  0.00     0.296 HD
ENDBRANCH   1  33
TORSDOF 2
