REMARK SMILES COc1ccc(-c2oc3cc(OC)c(OC)c(OC)c3c(=O)c2OC)c(OC)c1OC
REMARK SMILES IDX 7 1 23 2 21 3 22 4 20 5 17 6 14 7 11 8 10 9 9 10 8 11 6 12
REMARK SMILES IDX 3 13 4 14 29 15 5 16 26 17 2 18 1 19 30 20 31 21 27 22 28 23
REMARK SMILES IDX 24 24 25 25 18 26 19 27 12 28 13 29 15 30 16 31
REMARK H PARENT
ROOT
ATOM      1  C   UNL     1      -0.700  -0.470   0.000  1.00  0.00     0.184 A 
ATOM      2  C   UNL     1      -0.013  -1.803   0.000  1.00  0.00     0.211 A 
ATOM      3  C   UNL     1       1.486  -1.874   0.000  1.00  0.00     0.239 A 
ATOM      4  O   UNL     1       2.173  -3.207   0.000  1.00  0.00    -0.285 OA
ATOM      5  C   UNL     1       2.296  -0.612   0.000  1.00  0.00     0.115 A 
ATOM      6  C   UNL     1       3.795  -0.683   0.000  1.00  0.00     0.179 A 
ATOM      7  C   UNL     1       4.605   0.579   0.000  1.00  0.00     0.204 A 
ATOM      8  C   UNL     1       3.917   1.912   0.000  1.00  0.00     0.168 A 
ATOM      9  C   UNL     1       2.419   1.983   0.000  1.00  0.00     0.098 A 
ATOM     10  C   UNL     1       1.609   0.721   0.000  1.00  0.00     0.146 A 
ATOM     11  O   UNL     1       0.110   0.792   0.000  1.00  0.00    -0.451 OA
ENDROOT
BRANCH   1  12
ATOM     12  C   UNL     1      -2.199  -0.399   0.000  1.00  0.00     0.067 A 
ATOM     13  C   UNL     1      -5.195  -0.258   0.000  1.00  0.00     0.164 A 
ATOM     14  C   UNL     1      -4.508  -1.591   0.000  1.00  0.00     0.051 A 
ATOM     15  C   UNL     1      -4.385   1.005   0.000  1.00  0.00     0.204 A 
ATOM     16  C   UNL     1      -3.009  -1.661   0.000  1.00  0.00     0.020 A 
ATOM     17  C   UNL     1      -2.886   0.934   0.000  1.00  0.00     0.175 A 
BRANCH  13  18
ATOM     18  O   UNL     1      -6.694  -0.187   0.000  1.00  0.00    -0.493 OA
ATOM     19  C   UNL     1      -7.504  -1.449   0.000  1.00  0.00     0.278 C 
ENDBRANCH  13  18
BRANCH  15  20
ATOM     20  O   UNL     1      -5.073   2.338   0.000  1.00  0.00    -0.490 OA
ATOM     21  C   UNL     1      -6.571   2.409   0.000  1.00  0.00     0.278 C 
ENDBRANCH  15  20
BRANCH  17  22
ATOM     22  O   UNL     1      -2.076   2.196   0.000  1.00  0.00    -0.492 OA
ATOM     23  C   UNL     1      -2.764   3.529   0.000  1.00  0.00     0.278 C 
ENDBRANCH  17  22
ENDBRANCH   1  12
BRANCH   2  24
ATOM     24  O   UNL     1      -0.823  -3.065   0.000  1.00  0.00    -0.490 OA
ATOM     25  C   UNL     1      -2.322  -2.994   0.000  1.00  0.00     0.278 C 
ENDBRANCH   2  24
BRANCH   6  26
ATOM     26  O   UNL     1       4.482  -2.016   0.000  1.00  0.00    -0.492 OA
ATOM     27  C   UNL     1       5.981  -2.087   0.000  1.00  0.00     0.278 C 
ENDBRANCH   6  26
BRANCH   8  28
ATOM     28  O   UNL     1       4.728   3.174   0.000  1.00  0.00    -0.493 OA
ATOM     29  C   UNL     1       6.226   3.103   0.000  1.00  0.00     0.278 C 
ENDBRANCH   8  28
BRANCH   7  30
ATOM     30  O   UNL     1       6.103   0.508   0.000  1.00  0.00    -0.490 OA
ATOM     31  C   UNL     1       6.791  -0.825   0.000  1.00  0.00     0.278 C 
ENDBRANCH   7  30
TORSDOF 8
