REMARK SMILES CC1=C2C(=O)O[C@@H](c3ccoc3)[C@]2(C)CCC1
REMARK SMILES IDX 1 1 2 2 3 3 4 4 5 5 6 6 7 7 13 8 14 9 15 10 16 11 17 12 8 13
REMARK SMILES IDX 12 14 9 15 11 16 10 17
REMARK H PARENT
ROOT
ATOM      1  C   UNL     1       4.333  -0.400   0.000  1.00  0.00     0.040 C 
ATOM      2  C   UNL     1       3.041   0.363   0.000  1.00  0.00    -0.062 C 
ATOM      3  C   UNL     1       1.735  -0.374   0.000  1.00  0.00     0.046 C 
ATOM      4  C   UNL     1       1.408  -1.838   0.000  1.00  0.00     0.335 C 
ATOM      5  O   UNL     1       2.400  -2.963   0.000  1.00  0.00    -0.247 OA
ATOM      6  O   UNL     1      -0.086  -1.979   0.000  1.00  0.00    -0.453 OA
ATOM      7  C   UNL     1      -0.681  -0.603   0.000  1.00  0.00     0.221 C 
ATOM      8  C   UNL     1       0.444   0.390   0.000  1.00  0.00     0.041 C 
ATOM      9  C   UNL     1      -0.920   1.014   0.000  1.00  0.00     0.021 C 
ATOM     10  C   UNL     1       0.459   1.889   0.000  1.00  0.00     0.016 C 
ATOM     11  C   UNL     1       1.766   2.626   0.000  1.00  0.00     0.005 C 
ATOM     12  C   UNL     1       3.057   1.863   0.000  1.00  0.00     0.031 C 
ENDROOT
BRANCH   7  13
ATOM     13  C   UNL     1      -2.145  -0.276   0.000  1.00  0.00     0.032 A 
ATOM     14  C   UNL     1      -3.270  -1.268   0.000  1.00  0.00     0.202 A 
ATOM     15  C   UNL     1      -2.741   1.101   0.000  1.00  0.00     0.049 A 
ATOM     16  O   UNL     1      -4.562  -0.505   0.000  1.00  0.00    -0.472 OA
ATOM     17  C   UNL     1      -4.235   0.959   0.000  1.00  0.00     0.195 A 
ENDBRANCH   7  13
TORSDOF 1
