REMARK SMILES COc1ccc(C=CC(=O)c2ccc(O)cc2O)cc1OC
REMARK SMILES IDX 8 1 7 2 6 3 3 4 4 5 20 6 5 7 19 8 2 9 1 10 21 11 22 12 9 13
REMARK SMILES IDX 10 14 11 15 12 16 17 17 13 18 16 19 14 20 18 21 15 23
REMARK H PARENT 18 22 15 24
ROOT
ATOM      1  C   UNL     1       0.513   0.723   0.000  1.00  0.00     0.053 C 
ENDROOT
BRANCH   1   2
ATOM      2  C   UNL     1      -0.676   1.637   0.000  1.00  0.00     0.012 C 
BRANCH   2   3
ATOM      3  C   UNL     1      -2.062   1.065   0.000  1.00  0.00    -0.022 A 
ATOM      4  C   UNL     1      -4.835  -0.080   0.000  1.00  0.00     0.160 A 
ATOM      5  C   UNL     1      -4.638   1.407   0.000  1.00  0.00     0.051 A 
ATOM      6  C   UNL     1      -3.647  -0.994   0.000  1.00  0.00     0.161 A 
ATOM      7  C   UNL     1      -3.251   1.980   0.000  1.00  0.00     0.012 A 
ATOM      8  C   UNL     1      -2.260  -0.422   0.000  1.00  0.00     0.058 A 
BRANCH   4   9
ATOM      9  O   UNL     1      -6.222  -0.652   0.000  1.00  0.00    -0.493 OA
ATOM     10  C   UNL     1      -7.411   0.263   0.000  1.00  0.00     0.278 C 
ENDBRANCH   4   9
BRANCH   6  11
ATOM     11  O   UNL     1      -3.844  -2.481   0.000  1.00  0.00    -0.493 OA
ATOM     12  C   UNL     1      -2.655  -3.396   0.000  1.00  0.00     0.278 C 
ENDBRANCH   6  11
ENDBRANCH   2   3
ENDBRANCH   1   2
BRANCH   1  13
ATOM     13  C   UNL     1       1.899   1.295   0.000  1.00  0.00     0.189 C 
ATOM     14  O   UNL     1       2.097   2.782   0.000  1.00  0.00    -0.289 OA
BRANCH  13  15
ATOM     15  C   UNL     1       3.088   0.381   0.000  1.00  0.00     0.064 A 
ATOM     16  C   UNL     1       2.891  -1.106   0.000  1.00  0.00     0.020 A 
ATOM     17  C   UNL     1       4.475   0.953   0.000  1.00  0.00     0.130 A 
ATOM     18  C   UNL     1       4.080  -2.021   0.000  1.00  0.00     0.047 A 
ATOM     19  C   UNL     1       5.664   0.038   0.000  1.00  0.00     0.093 A 
ATOM     20  C   UNL     1       5.466  -1.448   0.000  1.00  0.00     0.119 A 
BRANCH  17  21
ATOM     21  O   UNL     1       4.673   2.440   0.000  1.00  0.00    -0.507 OA
ATOM     22  H   UNL     1       0.000   0.000   0.000  1.00  0.00     0.293 HD
ENDBRANCH  17  21
BRANCH  20  23
ATOM     23  O   UNL     1       6.655  -2.363   0.000  1.00  0.00    -0.508 OA
ATOM     24  H   UNL     1       0.000   0.000   0.000  1.00  0.00     0.293 HD
ENDBRANCH  20  23
ENDBRANCH  13  15
ENDBRANCH   1  13
TORSDOF 8
