REMARK SMILES C[C@@H]1O[C@@H](Oc2cc(O)c3c(=O)c(O[C@@H]4O[C@@H](C)[C@H](O)[C@@H](O)[C@H]4O)c(-c4ccc(O)cc4)oc3c2)[C@H](O)[C@H](O)[C@H]1O
REMARK SMILES IDX 6 1 7 2 8 3 10 4 11 5 12 6 13 7 25 8 33 9 34 10 35 11 5 12
REMARK SMILES IDX 4 13 2 14 3 15 40 16 38 17 36 18 1 19 41 20 39 22 37 24 9 26
REMARK SMILES IDX 26 28 27 29 32 30 28 31 31 32 29 33 30 34 14 36 15 37 16 38
REMARK SMILES IDX 23 39 17 40 21 41 19 42 18 43 24 44 22 46 20 48
REMARK H PARENT 41 21 39 23 37 25 9 27 30 35 24 45 22 47 20 49
ROOT
ATOM      1  C   UNL     1      -2.918  -2.075   0.000  1.00  0.00     0.130 A 
ATOM      2  C   UNL     1      -1.894  -3.171   0.000  1.00  0.00     0.093 A 
ATOM      3  C   UNL     1      -0.433  -2.832   0.000  1.00  0.00     0.134 A 
ATOM      4  C   UNL     1       0.005  -1.397   0.000  1.00  0.00     0.111 A 
ATOM      5  C   UNL     1       1.466  -1.059   0.000  1.00  0.00     0.239 A 
ATOM      6  O   UNL     1       2.490  -2.155   0.000  1.00  0.00    -0.285 OA
ATOM      7  C   UNL     1       1.903   0.376   0.000  1.00  0.00     0.214 A 
ATOM      8  C   UNL     1       0.879   1.472   0.000  1.00  0.00     0.180 A 
ATOM      9  O   UNL     1      -0.582   1.133   0.000  1.00  0.00    -0.452 OA
ATOM     10  C   UNL     1      -1.019  -0.301   0.000  1.00  0.00     0.146 A 
ATOM     11  C   UNL     1      -2.481  -0.640   0.000  1.00  0.00     0.094 A 
ENDROOT
BRANCH   1  12
ATOM     12  O   UNL     1      -4.379  -2.413   0.000  1.00  0.00    -0.462 OA
BRANCH  12  13
ATOM     13  C   UNL     1      -5.403  -1.317   0.000  1.00  0.00     0.339 C 
ATOM     14  C   UNL     1      -5.990   1.214   0.000  1.00  0.00     0.151 C 
ATOM     15  O   UNL     1      -4.966   0.117   0.000  1.00  0.00    -0.335 OA
ATOM     16  C   UNL     1      -7.451   0.875   0.000  1.00  0.00     0.174 C 
ATOM     17  C   UNL     1      -7.888  -0.560   0.000  1.00  0.00     0.180 C 
ATOM     18  C   UNL     1      -6.864  -1.656   0.000  1.00  0.00     0.214 C 
ATOM     19  C   UNL     1      -5.552   2.648   0.000  1.00  0.00     0.042 C 
BRANCH  16  20
ATOM     20  O   UNL     1      -8.475   1.971   0.000  1.00  0.00    -0.388 OA
ATOM     21  H   UNL     1       0.000   0.000   0.000  1.00  0.00     0.211 HD
ENDBRANCH  16  20
BRANCH  17  22
ATOM     22  O   UNL     1      -9.350  -0.899   0.000  1.00  0.00    -0.387 OA
ATOM     23  H   UNL     1       0.000   0.000   0.000  1.00  0.00     0.211 HD
ENDBRANCH  17  22
BRANCH  18  24
ATOM     24  O   UNL     1      -7.302  -3.091   0.000  1.00  0.00    -0.384 OA
ATOM     25  H   UNL     1       0.000   0.000   0.000  1.00  0.00     0.211 HD
ENDBRANCH  18  24
ENDBRANCH  12  13
ENDBRANCH   1  12
BRANCH   3  26
ATOM     26  O   UNL     1       0.591  -3.928   0.000  1.00  0.00    -0.507 OA
ATOM     27  H   UNL     1       0.000   0.000   0.000  1.00  0.00     0.293 HD
ENDBRANCH   3  26
BRANCH   8  28
ATOM     28  C   UNL     1       1.317   2.907   0.000  1.00  0.00     0.021 A 
ATOM     29  C   UNL     1       2.778   3.246   0.000  1.00  0.00     0.016 A 
ATOM     30  C   UNL     1       0.293   4.003   0.000  1.00  0.00     0.016 A 
ATOM     31  C   UNL     1       3.215   4.681   0.000  1.00  0.00     0.047 A 
ATOM     32  C   UNL     1       0.730   5.438   0.000  1.00  0.00     0.047 A 
ATOM     33  C   UNL     1       2.191   5.777   0.000  1.00  0.00     0.115 A 
BRANCH  33  34
ATOM     34  O   UNL     1       2.628   7.212   0.000  1.00  0.00    -0.508 OA
ATOM     35  H   UNL     1       0.000   0.000   0.000  1.00  0.00     0.293 HD
ENDBRANCH  33  34
ENDBRANCH   8  28
BRANCH   7  36
ATOM     36  O   UNL     1       3.365   0.715   0.000  1.00  0.00    -0.454 OA
BRANCH  36  37
ATOM     37  C   UNL     1       4.388  -0.381   0.000  1.00  0.00     0.339 C 
ATOM     38  O   UNL     1       3.951  -1.816   0.000  1.00  0.00    -0.335 OA
ATOM     39  C   UNL     1       5.850  -0.043   0.000  1.00  0.00     0.214 C 
ATOM     40  C   UNL     1       4.975  -2.912   0.000  1.00  0.00     0.151 C 
ATOM     41  C   UNL     1       6.874  -1.139   0.000  1.00  0.00     0.180 C 
ATOM     42  C   UNL     1       6.436  -2.574   0.000  1.00  0.00     0.174 C 
ATOM     43  C   UNL     1       4.538  -4.347   0.000  1.00  0.00     0.042 C 
BRANCH  39  44
ATOM     44  O   UNL     1       6.287   1.392   0.000  1.00  0.00    -0.384 OA
ATOM     45  H   UNL     1       0.000   0.000   0.000  1.00  0.00     0.211 HD
ENDBRANCH  39  44
BRANCH  41  46
ATOM     46  O   UNL     1       8.335  -0.800   0.000  1.00  0.00    -0.387 OA
ATOM     47  H   UNL     1       0.000   0.000   0.000  1.00  0.00     0.211 HD
ENDBRANCH  41  46
BRANCH  42  48
ATOM     48  O   UNL     1       7.460  -3.670   0.000  1.00  0.00    -0.388 OA
ATOM     49  H   UNL     1       0.000   0.000   0.000  1.00  0.00     0.211 HD
ENDBRANCH  42  48
ENDBRANCH  36  37
ENDBRANCH   7  36
TORSDOF 13
