REMARK SMILES COc1cc2oc(-c3ccc(O)c(O)c3)cc(=O)c2c(O)c1O[C@@H]1O[C@H](CO[C@@H]2O[C@@H](C)[C@H](O)[C@@H](O)[C@H]2O)[C@@H](O)[C@H](O)[C@H]1O
REMARK SMILES IDX 24 1 25 2 26 3 39 4 41 5 43 6 23 7 22 8 3 9 4 10 5 11 20 12
REMARK SMILES IDX 19 13 6 14 17 15 7 16 16 17 18 18 2 19 1 20 21 21 8 23 9 24
REMARK SMILES IDX 15 25 10 26 13 27 11 28 14 29 12 31 44 33 27 35 28 36 29 37
REMARK SMILES IDX 30 38 37 39 31 40 35 41 33 42 32 43 38 44 36 46 34 48 42 50
REMARK SMILES IDX 40 52
REMARK H PARENT 21 22 14 30 12 32 44 34 38 45 36 47 34 49 42 51 40 53
ROOT
ATOM      1  C   UNL     1      -1.474  -3.430   0.000  1.00  0.00     0.339 C 
ATOM      2  O   UNL     1      -1.873  -1.984   0.000  1.00  0.00    -0.332 OA
ATOM      3  C   UNL     1      -3.324  -1.606   0.000  1.00  0.00     0.180 C 
ATOM      4  C   UNL     1      -4.377  -2.674   0.000  1.00  0.00     0.177 C 
ATOM      5  C   UNL     1      -3.979  -4.120   0.000  1.00  0.00     0.180 C 
ATOM      6  C   UNL     1      -2.527  -4.498   0.000  1.00  0.00     0.214 C 
ENDROOT
BRANCH   1   7
ATOM      7  O   UNL     1      -0.022  -3.808   0.000  1.00  0.00    -0.454 OA
BRANCH   7   8
ATOM      8  C   UNL     1       1.031  -2.739   0.000  1.00  0.00     0.207 A 
ATOM      9  C   UNL     1       0.632  -1.293   0.000  1.00  0.00     0.168 A 
ATOM     10  C   UNL     1       1.685  -0.225   0.000  1.00  0.00     0.098 A 
ATOM     11  C   UNL     1       3.137  -0.603   0.000  1.00  0.00     0.146 A 
ATOM     12  C   UNL     1       2.482  -3.117   0.000  1.00  0.00     0.177 A 
ATOM     13  C   UNL     1       3.535  -2.049   0.000  1.00  0.00     0.111 A 
ATOM     14  O   UNL     1       4.190   0.465   0.000  1.00  0.00    -0.456 OA
ATOM     15  C   UNL     1       4.987  -2.427   0.000  1.00  0.00     0.197 A 
ATOM     16  C   UNL     1       5.641   0.088   0.000  1.00  0.00     0.138 A 
ATOM     17  C   UNL     1       6.040  -1.359   0.000  1.00  0.00     0.100 A 
ATOM     18  O   UNL     1       5.386  -3.873   0.000  1.00  0.00    -0.289 OA
BRANCH   9  19
ATOM     19  O   UNL     1      -0.820  -0.915   0.000  1.00  0.00    -0.493 OA
ATOM     20  C   UNL     1      -1.218   0.531   0.000  1.00  0.00     0.278 C 
ENDBRANCH   9  19
BRANCH  12  21
ATOM     21  O   UNL     1       2.881  -4.563   0.000  1.00  0.00    -0.504 OA
ATOM     22  H   UNL     1       0.000   0.000   0.000  1.00  0.00     0.293 HD
ENDBRANCH  12  21
BRANCH  16  23
ATOM     23  C   UNL     1       6.694   1.156   0.000  1.00  0.00     0.021 A 
ATOM     24  C   UNL     1       8.146   0.778   0.000  1.00  0.00     0.016 A 
ATOM     25  C   UNL     1       6.296   2.602   0.000  1.00  0.00     0.062 A 
ATOM     26  C   UNL     1       9.199   1.846   0.000  1.00  0.00     0.051 A 
ATOM     27  C   UNL     1       7.349   3.670   0.000  1.00  0.00     0.158 A 
ATOM     28  C   UNL     1       8.800   3.292   0.000  1.00  0.00     0.157 A 
BRANCH  27  29
ATOM     29  O   UNL     1       6.950   5.116   0.000  1.00  0.00    -0.504 OA
ATOM     30  H   UNL     1       0.000   0.000   0.000  1.00  0.00     0.293 HD
ENDBRANCH  27  29
BRANCH  28  31
ATOM     31  O   UNL     1       9.854   4.361   0.000  1.00  0.00    -0.504 OA
ATOM     32  H   UNL     1       0.000   0.000   0.000  1.00  0.00     0.293 HD
ENDBRANCH  28  31
ENDBRANCH  16  23
ENDBRANCH   7   8
ENDBRANCH   1   7
BRANCH   6  33
ATOM     33  O   UNL     1      -2.128  -5.944   0.000  1.00  0.00    -0.384 OA
ATOM     34  H   UNL     1       0.000   0.000   0.000  1.00  0.00     0.211 HD
ENDBRANCH   6  33
BRANCH   3  35
ATOM     35  C   UNL     1      -3.723  -0.160   0.000  1.00  0.00     0.198 C 
BRANCH  35  36
ATOM     36  O   UNL     1      -5.174   0.218   0.000  1.00  0.00    -0.347 OA
BRANCH  36  37
ATOM     37  C   UNL     1      -5.573   1.664   0.000  1.00  0.00     0.281 C 
ATOM     38  O   UNL     1      -4.520   2.732   0.000  1.00  0.00    -0.344 OA
ATOM     39  C   UNL     1      -7.025   2.042   0.000  1.00  0.00     0.202 C 
ATOM     40  C   UNL     1      -4.919   4.178   0.000  1.00  0.00     0.150 C 
ATOM     41  C   UNL     1      -7.423   3.488   0.000  1.00  0.00     0.179 C 
ATOM     42  C   UNL     1      -6.370   4.556   0.000  1.00  0.00     0.174 C 
ATOM     43  C   UNL     1      -3.866   5.247   0.000  1.00  0.00     0.041 C 
BRANCH  39  44
ATOM     44  O   UNL     1      -8.078   0.974   0.000  1.00  0.00    -0.385 OA
ATOM     45  H   UNL     1       0.000   0.000   0.000  1.00  0.00     0.211 HD
ENDBRANCH  39  44
BRANCH  41  46
ATOM     46  O   UNL     1      -8.875   3.866   0.000  1.00  0.00    -0.387 OA
ATOM     47  H   UNL     1       0.000   0.000   0.000  1.00  0.00     0.211 HD
ENDBRANCH  41  46
BRANCH  42  48
ATOM     48  O   UNL     1      -6.769   6.002   0.000  1.00  0.00    -0.388 OA
ATOM     49  H   UNL     1       0.000   0.000   0.000  1.00  0.00     0.211 HD
ENDBRANCH  42  48
ENDBRANCH  36  37
ENDBRANCH  35  36
ENDBRANCH   3  35
BRANCH   5  50
ATOM     50  O   UNL     1      -5.032  -5.189   0.000  1.00  0.00    -0.387 OA
ATOM     51  H   UNL     1       0.000   0.000   0.000  1.00  0.00     0.211 HD
ENDBRANCH   5  50
BRANCH   4  52
ATOM     52  O   UNL     1      -5.829  -2.296   0.000  1.00  0.00    -0.387 OA
ATOM     53  H   UNL     1       0.000   0.000   0.000  1.00  0.00     0.211 HD
ENDBRANCH   4  52
TORSDOF 16
