REMARK SMILES O=c1cc(-c2ccc(O)cc2)oc2c([C@@H]3O[C@H](CO)[C@@H](O)[C@H](O)[C@H]3O)c(O)c([C@@H]3OC[C@H](O)[C@H](O)[C@H]3O)c(O)c12
REMARK SMILES IDX 1 1 2 2 3 3 4 4 12 5 13 6 14 7 26 8 28 9 38 10 40 11 5 12
REMARK SMILES IDX 6 13 11 14 7 15 10 16 8 17 9 18 39 20 29 22 30 23 36 24
REMARK SMILES IDX 31 25 34 26 32 27 37 28 35 30 33 32 15 34 16 35 24 36 17 37
REMARK SMILES IDX 22 38 20 39 25 40 18 42 19 43 23 45 21 47 27 49
REMARK H PARENT 9 19 39 21 37 29 35 31 33 33 25 41 19 44 23 46 21 48 27 50
ROOT
ATOM      1  O   UNL     1      -0.185  -4.747   0.000  1.00  0.00    -0.289 OA
ATOM      2  C   UNL     1      -0.799  -3.379   0.000  1.00  0.00     0.197 A 
ATOM      3  C   UNL     1      -2.291  -3.225   0.000  1.00  0.00     0.100 A 
ATOM      4  C   UNL     1      -2.905  -1.857   0.000  1.00  0.00     0.138 A 
ATOM      5  O   UNL     1      -2.026  -0.641   0.000  1.00  0.00    -0.455 OA
ATOM      6  C   UNL     1      -0.534  -0.794   0.000  1.00  0.00     0.152 A 
ATOM      7  C   UNL     1       0.345   0.422   0.000  1.00  0.00     0.069 A 
ATOM      8  C   UNL     1       1.837   0.269   0.000  1.00  0.00     0.134 A 
ATOM      9  C   UNL     1       2.450  -1.100   0.000  1.00  0.00     0.068 A 
ATOM     10  C   UNL     1       1.572  -2.316   0.000  1.00  0.00     0.140 A 
ATOM     11  C   UNL     1       0.080  -2.163   0.000  1.00  0.00     0.107 A 
ENDROOT
BRANCH   4  12
ATOM     12  C   UNL     1      -4.397  -1.704   0.000  1.00  0.00     0.018 A 
ATOM     13  C   UNL     1      -5.010  -0.335   0.000  1.00  0.00     0.016 A 
ATOM     14  C   UNL     1      -5.276  -2.919   0.000  1.00  0.00     0.016 A 
ATOM     15  C   UNL     1      -6.503  -0.182   0.000  1.00  0.00     0.047 A 
ATOM     16  C   UNL     1      -6.768  -2.766   0.000  1.00  0.00     0.047 A 
ATOM     17  C   UNL     1      -7.381  -1.397   0.000  1.00  0.00     0.115 A 
BRANCH  17  18
ATOM     18  O   UNL     1      -8.873  -1.244   0.000  1.00  0.00    -0.508 OA
ATOM     19  H   UNL     1       0.000   0.000   0.000  1.00  0.00     0.293 HD
ENDBRANCH  17  18
ENDBRANCH   4  12
BRANCH  10  20
ATOM     20  O   UNL     1       2.185  -3.685   0.000  1.00  0.00    -0.506 OA
ATOM     21  H   UNL     1       0.000   0.000   0.000  1.00  0.00     0.293 HD
ENDBRANCH  10  20
BRANCH   9  22
ATOM     22  C   UNL     1       3.943  -1.253   0.000  1.00  0.00     0.187 C 
ATOM     23  O   UNL     1       4.556  -2.622   0.000  1.00  0.00    -0.368 OA
ATOM     24  C   UNL     1       4.821  -0.038   0.000  1.00  0.00     0.179 C 
ATOM     25  C   UNL     1       6.048  -2.775   0.000  1.00  0.00     0.195 C 
ATOM     26  C   UNL     1       6.314  -0.191   0.000  1.00  0.00     0.177 C 
ATOM     27  C   UNL     1       6.927  -1.560   0.000  1.00  0.00     0.171 C 
BRANCH  24  28
ATOM     28  O   UNL     1       4.208   1.331   0.000  1.00  0.00    -0.387 OA
ATOM     29  H   UNL     1       0.000   0.000   0.000  1.00  0.00     0.211 HD
ENDBRANCH  24  28
BRANCH  26  30
ATOM     30  O   UNL     1       7.192   1.025   0.000  1.00  0.00    -0.387 OA
ATOM     31  H   UNL     1       0.000   0.000   0.000  1.00  0.00     0.211 HD
ENDBRANCH  26  30
BRANCH  27  32
ATOM     32  O   UNL     1       8.419  -1.712   0.000  1.00  0.00    -0.388 OA
ATOM     33  H   UNL     1       0.000   0.000   0.000  1.00  0.00     0.211 HD
ENDBRANCH  27  32
ENDBRANCH   9  22
BRANCH   7  34
ATOM     34  C   UNL     1      -0.269   1.790   0.000  1.00  0.00     0.188 C 
ATOM     35  O   UNL     1       0.610   3.006   0.000  1.00  0.00    -0.362 OA
ATOM     36  C   UNL     1      -1.761   1.944   0.000  1.00  0.00     0.179 C 
ATOM     37  C   UNL     1      -0.004   4.375   0.000  1.00  0.00     0.176 C 
ATOM     38  C   UNL     1      -2.374   3.312   0.000  1.00  0.00     0.177 C 
ATOM     39  C   UNL     1      -1.496   4.528   0.000  1.00  0.00     0.177 C 
BRANCH  36  40
ATOM     40  O   UNL     1      -2.639   0.728   0.000  1.00  0.00    -0.387 OA
ATOM     41  H   UNL     1       0.000   0.000   0.000  1.00  0.00     0.211 HD
ENDBRANCH  36  40
BRANCH  37  42
ATOM     42  C   UNL     1       0.875   5.591   0.000  1.00  0.00     0.191 C 
BRANCH  42  43
ATOM     43  O   UNL     1       2.367   5.438   0.000  1.00  0.00    -0.394 OA
ATOM     44  H   UNL     1       0.000   0.000   0.000  1.00  0.00     0.210 HD
ENDBRANCH  42  43
ENDBRANCH  37  42
BRANCH  38  45
ATOM     45  O   UNL     1      -3.866   3.465   0.000  1.00  0.00    -0.387 OA
ATOM     46  H   UNL     1       0.000   0.000   0.000  1.00  0.00     0.211 HD
ENDBRANCH  38  45
BRANCH  39  47
ATOM     47  O   UNL     1      -2.109   5.897   0.000  1.00  0.00    -0.388 OA
ATOM     48  H   UNL     1       0.000   0.000   0.000  1.00  0.00     0.211 HD
ENDBRANCH  39  47
ENDBRANCH   7  34
BRANCH   8  49
ATOM     49  O   UNL     1       2.716   1.484   0.000  1.00  0.00    -0.507 OA
ATOM     50  H   UNL     1       0.000   0.000   0.000  1.00  0.00     0.293 HD
ENDBRANCH   8  49
TORSDOF 14
