REMARK SMILES CC1=CC=C2[C@@](C)(CC[C@@]3(C)[C@@H]4C[C@@H](C)C(=O)C[C@]4(C)CC[C@]23C)/C1=C\C(=O)O
REMARK SMILES IDX 26 1 25 2 2 3 3 4 4 5 6 6 5 7 8 8 23 9 9 10 22 11 10 12
REMARK SMILES IDX 21 13 12 14 19 15 13 16 18 17 14 18 16 19 1 20 7 21 24 22
REMARK SMILES IDX 11 23 20 24 15 25 17 26 27 27 28 28 29 29
REMARK H PARENT 29 30
ROOT
ATOM      1  C   UNL     1       4.542   1.149   0.000  1.00  0.00     0.098 C 
ENDROOT
BRANCH   1   2
ATOM      2  C   UNL     1       3.724  -0.108   0.000  1.00  0.00    -0.028 C 
ATOM      3  C   UNL     1       4.404  -1.445   0.000  1.00  0.00    -0.047 C 
ATOM      4  C   UNL     1       3.586  -2.703   0.000  1.00  0.00     0.004 C 
ATOM      5  C   UNL     1       2.088  -2.623   0.000  1.00  0.00     0.001 C 
ATOM      6  C   UNL     1       2.226  -0.029   0.000  1.00  0.00     0.015 C 
ATOM      7  C   UNL     1       1.408  -1.286   0.000  1.00  0.00    -0.053 C 
ATOM      8  C   UNL     1       1.546   1.308   0.000  1.00  0.00     0.016 C 
ATOM      9  C   UNL     1      -0.090  -1.206   0.000  1.00  0.00    -0.005 C 
ATOM     10  C   UNL     1       0.048   1.388   0.000  1.00  0.00     0.009 C 
ATOM     11  C   UNL     1      -0.908  -2.464   0.000  1.00  0.00     0.012 C 
ATOM     12  C   UNL     1      -0.770   0.131   0.000  1.00  0.00    -0.020 C 
ATOM     13  C   UNL     1      -2.406  -2.384   0.000  1.00  0.00     0.008 C 
ATOM     14  C   UNL     1      -2.268   0.210   0.000  1.00  0.00     0.003 C 
ATOM     15  C   UNL     1      -3.086  -1.047   0.000  1.00  0.00    -0.022 C 
ATOM     16  C   UNL     1      -2.948   1.547   0.000  1.00  0.00     0.016 C 
ATOM     17  C   UNL     1      -4.584  -0.968   0.000  1.00  0.00     0.083 C 
ATOM     18  C   UNL     1      -4.446   1.627   0.000  1.00  0.00     0.053 C 
ATOM     19  C   UNL     1      -5.264   0.369   0.000  1.00  0.00     0.136 C 
ATOM     20  C   UNL     1       5.902  -1.525   0.000  1.00  0.00     0.044 C 
ATOM     21  C   UNL     1       3.044   1.229   0.000  1.00  0.00     0.021 C 
ATOM     22  C   UNL     1       0.590  -2.543   0.000  1.00  0.00     0.017 C 
ATOM     23  C   UNL     1      -1.450   1.468   0.000  1.00  0.00     0.012 C 
ATOM     24  C   UNL     1      -3.904  -2.305   0.000  1.00  0.00     0.012 C 
ATOM     25  C   UNL     1      -5.126   2.964   0.000  1.00  0.00     0.016 C 
ATOM     26  O   UNL     1      -6.762   0.449   0.000  1.00  0.00    -0.299 OA
ENDBRANCH   1   2
BRANCH   1  27
ATOM     27  C   UNL     1       3.861   2.486   0.000  1.00  0.00     0.328 C 
ATOM     28  O   UNL     1       2.364   2.566   0.000  1.00  0.00    -0.247 OA
BRANCH  27  29
ATOM     29  O   UNL     1       4.679   3.744   0.000  1.00  0.00    -0.478 OA
ATOM     30  H   UNL     1       0.000   0.000   0.000  1.00  0.00     0.297 HD
ENDBRANCH  27  29
ENDBRANCH   1  27
TORSDOF 3
