REMARK SMILES CC1(C)CCc2cc(CCC(=O)c3c(O)cc4c(c3O)CCC(C)(C)O4)ccc2O1
REMARK SMILES IDX 10 1 9 2 8 3 2 4 4 5 30 6 5 7 29 8 6 9 28 10 7 11 27 12 1 13
REMARK SMILES IDX 3 14 11 15 12 16 13 17 14 18 19 19 16 20 18 21 17 22 21 23
REMARK SMILES IDX 26 24 22 25 23 26 24 27 25 28 15 29 20 31
REMARK H PARENT 15 30 20 32
ROOT
ATOM      1  C   UNL     1      -0.207   0.655   0.000  1.00  0.00     0.086 C 
ENDROOT
BRANCH   1   2
ATOM      2  C   UNL     1      -1.495   1.424   0.000  1.00  0.00     0.044 C 
BRANCH   2   3
ATOM      3  C   UNL     1      -2.805   0.693   0.000  1.00  0.00    -0.047 A 
ATOM      4  C   UNL     1      -8.022  -0.730   0.000  1.00  0.00     0.104 C 
ATOM      5  C   UNL     1      -8.000   0.770   0.000  1.00  0.00     0.053 C 
ATOM      6  O   UNL     1      -6.735  -1.499   0.000  1.00  0.00    -0.488 OA
ATOM      7  C   UNL     1      -6.690   1.501   0.000  1.00  0.00     0.043 C 
ATOM      8  C   UNL     1      -5.425  -0.768   0.000  1.00  0.00     0.123 A 
ATOM      9  C   UNL     1      -5.402   0.732   0.000  1.00  0.00    -0.005 A 
ATOM     10  C   UNL     1      -4.137  -1.537   0.000  1.00  0.00     0.047 A 
ATOM     11  C   UNL     1      -4.092   1.462   0.000  1.00  0.00     0.011 A 
ATOM     12  C   UNL     1      -2.827  -0.807   0.000  1.00  0.00     0.007 A 
ATOM     13  C   UNL     1      -8.556  -2.132   0.000  1.00  0.00     0.056 C 
ATOM     14  C   UNL     1      -9.496  -0.448   0.000  1.00  0.00     0.056 C 
ENDBRANCH   2   3
ENDBRANCH   1   2
BRANCH   1  15
ATOM     15  C   UNL     1       1.103   1.385   0.000  1.00  0.00     0.170 C 
ATOM     16  O   UNL     1       1.125   2.885   0.000  1.00  0.00    -0.294 OA
BRANCH  15  17
ATOM     17  C   UNL     1       2.391   0.616   0.000  1.00  0.00     0.102 A 
ATOM     18  C   UNL     1       2.369  -0.883   0.000  1.00  0.00     0.133 A 
ATOM     19  C   UNL     1       3.701   1.347   0.000  1.00  0.00     0.137 A 
ATOM     20  C   UNL     1       3.657  -1.653   0.000  1.00  0.00     0.094 A 
ATOM     21  C   UNL     1       4.989   0.578   0.000  1.00  0.00     0.037 A 
ATOM     22  C   UNL     1       4.966  -0.922   0.000  1.00  0.00     0.130 A 
ATOM     23  C   UNL     1       6.299   1.309   0.000  1.00  0.00     0.047 C 
ATOM     24  O   UNL     1       6.254  -1.691   0.000  1.00  0.00    -0.487 OA
ATOM     25  C   UNL     1       7.587   0.539   0.000  1.00  0.00     0.053 C 
ATOM     26  C   UNL     1       7.564  -0.960   0.000  1.00  0.00     0.104 C 
ATOM     27  C   UNL     1       9.045  -0.722   0.000  1.00  0.00     0.056 C 
ATOM     28  C   UNL     1       8.056  -2.377   0.000  1.00  0.00     0.056 C 
BRANCH  18  29
ATOM     29  O   UNL     1       1.059  -1.614   0.000  1.00  0.00    -0.507 OA
ATOM     30  H   UNL     1       0.000   0.000   0.000  1.00  0.00     0.293 HD
ENDBRANCH  18  29
BRANCH  19  31
ATOM     31  O   UNL     1       3.723   2.847   0.000  1.00  0.00    -0.507 OA
ATOM     32  H   UNL     1       0.000   0.000   0.000  1.00  0.00     0.293 HD
ENDBRANCH  19  31
ENDBRANCH  15  17
ENDBRANCH   1  15
TORSDOF 6
