REMARK SMILES C[C@H](C1OC(C)(C)[C@H]2OC(C)(C)O[C@@H]12)[C@@H]1CC[C@]2(C)C3=CC[C@H]4C(C)(C)[C@@H](O)CC[C@]4(C)[C@H]3CC[C@@]12C
REMARK SMILES IDX 15 1 16 2 17 3 18 4 19 5 20 6 21 7 22 8 23 9 24 10 25 11
REMARK SMILES IDX 26 12 27 13 29 14 30 15 31 16 32 17 33 18 34 19 35 20 36 21
REMARK SMILES IDX 37 22 2 23 1 24 3 25 4 26 14 27 5 28 13 29 8 30 10 31 9 32
REMARK SMILES IDX 6 33 7 34 11 35 12 36 28 37
REMARK H PARENT 28 38
ROOT
ATOM      1  C   UNL     1       1.520  -2.323   0.000  1.00  0.00     0.001 C 
ATOM      2  C   UNL     1       0.977  -3.721   0.000  1.00  0.00     0.005 C 
ATOM      3  C   UNL     1      -0.521  -3.636   0.000  1.00  0.00     0.012 C 
ATOM      4  C   UNL     1      -0.903  -2.186   0.000  1.00  0.00    -0.006 C 
ATOM      5  C   UNL     1      -2.072  -3.124   0.000  1.00  0.00     0.017 C 
ATOM      6  C   UNL     1      -2.236  -1.499   0.000  1.00  0.00    -0.064 C 
ATOM      7  C   UNL     1      -3.498  -2.310   0.000  1.00  0.00    -0.027 C 
ATOM      8  C   UNL     1      -4.832  -1.624   0.000  1.00  0.00     0.032 C 
ATOM      9  C   UNL     1      -4.904  -0.126   0.000  1.00  0.00     0.007 C 
ATOM     10  C   UNL     1      -6.237   0.561   0.000  1.00  0.00    -0.006 C 
ATOM     11  C   UNL     1      -7.725   0.750   0.000  1.00  0.00     0.014 C 
ATOM     12  C   UNL     1      -6.682  -0.871   0.000  1.00  0.00     0.014 C 
ATOM     13  C   UNL     1      -6.309   2.059   0.000  1.00  0.00     0.120 C 
ATOM     14  C   UNL     1      -5.048   2.871   0.000  1.00  0.00     0.033 C 
ATOM     15  C   UNL     1      -3.714   2.184   0.000  1.00  0.00     0.010 C 
ATOM     16  C   UNL     1      -3.642   0.686   0.000  1.00  0.00    -0.022 C 
ATOM     17  C   UNL     1      -2.381   1.498   0.000  1.00  0.00     0.012 C 
ATOM     18  C   UNL     1      -2.308  -0.001   0.000  1.00  0.00     0.021 C 
ATOM     19  C   UNL     1      -1.047   0.811   0.000  1.00  0.00     0.009 C 
ATOM     20  C   UNL     1       0.287   0.124   0.000  1.00  0.00     0.008 C 
ATOM     21  C   UNL     1       0.359  -1.374   0.000  1.00  0.00    -0.020 C 
ATOM     22  C   UNL     1       1.698  -0.699   0.000  1.00  0.00     0.012 C 
ENDROOT
BRANCH   1  23
ATOM     23  C   UNL     1       2.971  -1.941   0.000  1.00  0.00     0.021 C 
ATOM     24  C   UNL     1       4.027  -3.006   0.000  1.00  0.00     0.011 C 
BRANCH  23  25
ATOM     25  C   UNL     1       3.365  -0.493   0.000  1.00  0.00     0.154 C 
ATOM     26  O   UNL     1       2.426   0.676   0.000  1.00  0.00    -0.366 OA
ATOM     27  C   UNL     1       4.768   0.038   0.000  1.00  0.00     0.183 C 
ATOM     28  C   UNL     1       3.249   1.931   0.000  1.00  0.00     0.092 C 
ATOM     29  O   UNL     1       6.215  -0.356   0.000  1.00  0.00    -0.342 OA
ATOM     30  C   UNL     1       4.696   1.536   0.000  1.00  0.00     0.185 C 
ATOM     31  C   UNL     1       7.037   0.898   0.000  1.00  0.00     0.164 C 
ATOM     32  O   UNL     1       6.098   2.068   0.000  1.00  0.00    -0.341 OA
ATOM     33  C   UNL     1       1.915   2.617   0.000  1.00  0.00     0.045 C 
ATOM     34  C   UNL     1       3.792   3.329   0.000  1.00  0.00     0.045 C 
ATOM     35  C   UNL     1       8.103   1.954   0.000  1.00  0.00     0.075 C 
ATOM     36  C   UNL     1       8.199  -0.051   0.000  1.00  0.00     0.075 C 
ENDBRANCH  23  25
ENDBRANCH   1  23
BRANCH  13  37
ATOM     37  O   UNL     1      -7.643   2.746   0.000  1.00  0.00    -0.393 OA
ATOM     38  H   UNL     1       0.000   0.000   0.000  1.00  0.00     0.210 HD
ENDBRANCH  13  37
TORSDOF 3
