REMARK SMILES C=CCC1[C@H]2C[C@H](CN1C)C1CCCCN1[C@@H]2C1=CN(C(C)=O)CCC1
REMARK SMILES IDX 4 1 5 2 6 3 7 4 8 5 9 6 10 7 11 8 12 9 13 10 14 11 15 12
REMARK SMILES IDX 16 13 17 14 3 15 2 16 1 17 18 18 19 19 26 20 20 21 25 22
REMARK SMILES IDX 24 23 21 24 22 25 23 26
REMARK H PARENT
ROOT
ATOM      1  C   UNL     1      -2.905   1.073   0.000  1.00  0.00     0.065 C 
ATOM      2  C   UNL     1      -1.544   0.441   0.000  1.00  0.00     0.028 C 
ATOM      3  C   UNL     1      -2.771  -0.421   0.000  1.00  0.00     0.013 C 
ATOM      4  C   UNL     1      -2.638  -1.915   0.000  1.00  0.00     0.021 C 
ATOM      5  C   UNL     1      -3.998  -1.284   0.000  1.00  0.00     0.089 C 
ATOM      6  N   UNL     1      -4.132   0.210   0.000  1.00  0.00    -0.302 NA
ATOM      7  C   UNL     1      -5.493   0.841   0.000  1.00  0.00     0.105 C 
ATOM      8  C   UNL     1      -1.277  -2.547   0.000  1.00  0.00     0.061 C 
ATOM      9  C   UNL     1      -1.144  -4.041   0.000  1.00  0.00     0.019 C 
ATOM     10  C   UNL     1       0.217  -4.672   0.000  1.00  0.00     0.003 C 
ATOM     11  C   UNL     1       1.444  -3.810   0.000  1.00  0.00     0.016 C 
ATOM     12  C   UNL     1       1.310  -2.316   0.000  1.00  0.00     0.085 C 
ATOM     13  N   UNL     1      -0.050  -1.684   0.000  1.00  0.00    -0.293 NA
ATOM     14  C   UNL     1      -0.184  -0.190   0.000  1.00  0.00     0.089 C 
ENDROOT
BRANCH   1  15
ATOM     15  C   UNL     1      -3.038   2.567   0.000  1.00  0.00     0.046 C 
BRANCH  15  16
ATOM     16  C   UNL     1      -1.811   3.429   0.000  1.00  0.00    -0.033 C 
ATOM     17  C   UNL     1      -1.945   4.923   0.000  1.00  0.00     0.004 C 
ENDBRANCH  15  16
ENDBRANCH   1  15
BRANCH  14  18
ATOM     18  C   UNL     1       1.044   0.672   0.000  1.00  0.00    -0.036 C 
ATOM     19  C   UNL     1       2.404   0.041   0.000  1.00  0.00     0.089 C 
ATOM     20  C   UNL     1       0.910   2.167   0.000  1.00  0.00     0.036 C 
ATOM     21  N   UNL     1       3.631   0.904   0.000  1.00  0.00    -0.319 N 
ATOM     22  C   UNL     1       2.137   3.029   0.000  1.00  0.00     0.026 C 
ATOM     23  C   UNL     1       3.498   2.398   0.000  1.00  0.00     0.125 C 
BRANCH  21  24
ATOM     24  C   UNL     1       4.992   0.272   0.000  1.00  0.00     0.223 C 
ATOM     25  C   UNL     1       5.125  -1.222   0.000  1.00  0.00     0.115 C 
ATOM     26  O   UNL     1       6.219   1.135   0.000  1.00  0.00    -0.275 OA
ENDBRANCH  21  24
ENDBRANCH  14  18
TORSDOF 4
