REMARK SMILES C=C(C)[C@@H](OC(C)=O)[C@@H](OC(C)=O)c1c(OC)ccc2ccc(=O)oc12
REMARK SMILES IDX 4 1 2 2 1 3 3 4 5 5 6 6 7 7 8 8 9 9 10 10 11 11 12 12 13 13
REMARK SMILES IDX 14 14 15 15 26 16 18 17 20 18 25 19 19 20 21 21 23 22 22 23
REMARK SMILES IDX 24 24 16 25 17 26
REMARK H PARENT
ROOT
ATOM      1  C   UNL     1      -1.702  -0.355   0.000  1.00  0.00     0.247 C 
ENDROOT
BRANCH   1   2
ATOM      2  C   UNL     1      -2.602  -1.555   0.000  1.00  0.00    -0.036 C 
ATOM      3  C   UNL     1      -2.298  -2.605   0.000  1.00  0.00     0.011 C 
ATOM      4  C   UNL     1      -4.091  -1.376   0.000  1.00  0.00     0.043 C 
ENDBRANCH   1   2
BRANCH   1   5
ATOM      5  O   UNL     1      -2.292   1.024   0.000  1.00  0.00    -0.454 OA
BRANCH   5   6
ATOM      6  C   UNL     1      -3.781   1.204   0.000  1.00  0.00     0.303 C 
ATOM      7  C   UNL     1      -4.370   2.583   0.000  1.00  0.00     0.139 C 
ATOM      8  O   UNL     1      -4.681   0.004   0.000  1.00  0.00    -0.253 OA
ENDBRANCH   5   6
ENDBRANCH   1   5
BRANCH   1   9
ATOM      9  C   UNL     1      -0.213  -0.534   0.000  1.00  0.00     0.259 C 
BRANCH   9  10
ATOM     10  O   UNL     1       0.376  -1.913   0.000  1.00  0.00    -0.453 OA
BRANCH  10  11
ATOM     11  C   UNL     1      -0.523  -3.114   0.000  1.00  0.00     0.303 C 
ATOM     12  C   UNL     1       0.066  -4.493   0.000  1.00  0.00     0.139 C 
ATOM     13  O   UNL     1      -1.617  -3.116   0.000  1.00  0.00    -0.253 OA
ENDBRANCH  10  11
ENDBRANCH   9  10
BRANCH   9  14
ATOM     14  C   UNL     1       0.687   0.666   0.000  1.00  0.00     0.082 A 
ATOM     15  C   UNL     1       0.097   2.045   0.000  1.00  0.00     0.129 A 
ATOM     16  C   UNL     1       2.176   0.487   0.000  1.00  0.00     0.149 A 
ATOM     17  C   UNL     1       0.997   3.245   0.000  1.00  0.00     0.048 A 
ATOM     18  C   UNL     1       3.076   1.687   0.000  1.00  0.00     0.018 A 
ATOM     19  O   UNL     1       2.765  -0.892   0.000  1.00  0.00    -0.422 OA
ATOM     20  C   UNL     1       2.486   3.066   0.000  1.00  0.00     0.016 A 
ATOM     21  C   UNL     1       4.565   1.508   0.000  1.00  0.00     0.019 A 
ATOM     22  C   UNL     1       4.255  -1.072   0.000  1.00  0.00     0.336 A 
ATOM     23  C   UNL     1       5.154   0.128   0.000  1.00  0.00     0.094 A 
ATOM     24  O   UNL     1       4.844  -2.451   0.000  1.00  0.00    -0.246 OA
BRANCH  15  25
ATOM     25  O   UNL     1      -1.392   2.225   0.000  1.00  0.00    -0.496 OA
ATOM     26  C   UNL     1      -1.981   3.604   0.000  1.00  0.00     0.278 C 
ENDBRANCH  15  25
ENDBRANCH   9  14
ENDBRANCH   1   9
TORSDOF 8
