REMARK SMILES CC(=CCCC(C)=CC(=O)O)CCC=C(C)CCC=C(C)C(=O)O
REMARK SMILES IDX 12 1 2 2 1 3 3 4 4 5 5 6 6 7 7 8 8 9 9 10 10 11 11 12 13 14
REMARK SMILES IDX 14 15 15 16 16 17 17 18 18 19 19 20 20 21 21 22 22 23 23 24
REMARK SMILES IDX 24 25
REMARK H PARENT 11 13 24 26
ROOT
ATOM      1  C   UNL     1      -4.128  -1.942   0.000  1.00  0.00     0.034 C 
ENDROOT
BRANCH   1   2
ATOM      2  C   UNL     1      -5.162  -0.855   0.000  1.00  0.00    -0.077 C 
ATOM      3  C   UNL     1      -6.620  -1.207   0.000  1.00  0.00     0.039 C 
BRANCH   2   4
ATOM      4  C   UNL     1      -4.738   0.584   0.000  1.00  0.00    -0.028 C 
BRANCH   4   5
ATOM      5  C   UNL     1      -3.279   0.935   0.000  1.00  0.00     0.032 C 
BRANCH   5   6
ATOM      6  C   UNL     1      -2.855   2.374   0.000  1.00  0.00     0.035 C 
BRANCH   6   7
ATOM      7  C   UNL     1      -1.397   2.725   0.000  1.00  0.00    -0.066 C 
ATOM      8  C   UNL     1      -0.972   4.164   0.000  1.00  0.00     0.040 C 
BRANCH   7   9
ATOM      9  C   UNL     1      -0.363   1.639   0.000  1.00  0.00     0.092 C 
BRANCH   9  10
ATOM     10  C   UNL     1       1.095   1.990   0.000  1.00  0.00     0.328 C 
ATOM     11  O   UNL     1       1.520   3.429   0.000  1.00  0.00    -0.247 OA
BRANCH  10  12
ATOM     12  O   UNL     1       2.129   0.903   0.000  1.00  0.00    -0.478 OA
ATOM     13  H   UNL     1       0.000   0.000   0.000  1.00  0.00     0.297 HD
ENDBRANCH  10  12
ENDBRANCH   9  10
ENDBRANCH   7   9
ENDBRANCH   6   7
ENDBRANCH   5   6
ENDBRANCH   4   5
ENDBRANCH   2   4
ENDBRANCH   1   2
BRANCH   1  14
ATOM     14  C   UNL     1      -2.670  -1.591   0.000  1.00  0.00     0.032 C 
BRANCH  14  15
ATOM     15  C   UNL     1      -1.637  -2.678   0.000  1.00  0.00    -0.028 C 
BRANCH  15  16
ATOM     16  C   UNL     1      -0.178  -2.326   0.000  1.00  0.00    -0.077 C 
ATOM     17  C   UNL     1       0.855  -3.413   0.000  1.00  0.00     0.039 C 
BRANCH  16  18
ATOM     18  C   UNL     1       0.246  -0.887   0.000  1.00  0.00     0.034 C 
BRANCH  18  19
ATOM     19  C   UNL     1       1.704  -0.535   0.000  1.00  0.00     0.032 C 
BRANCH  19  20
ATOM     20  C   UNL     1       2.738  -1.623   0.000  1.00  0.00    -0.016 C 
BRANCH  20  21
ATOM     21  C   UNL     1       4.196  -1.271   0.000  1.00  0.00     0.030 C 
ATOM     22  C   UNL     1       5.230  -2.358   0.000  1.00  0.00     0.052 C 
BRANCH  21  23
ATOM     23  C   UNL     1       4.621   0.168   0.000  1.00  0.00     0.330 C 
ATOM     24  O   UNL     1       3.587   1.255   0.000  1.00  0.00    -0.247 OA
BRANCH  23  25
ATOM     25  O   UNL     1       6.079   0.519   0.000  1.00  0.00    -0.478 OA
ATOM     26  H   UNL     1       0.000   0.000   0.000  1.00  0.00     0.297 HD
ENDBRANCH  23  25
ENDBRANCH  21  23
ENDBRANCH  20  21
ENDBRANCH  19  20
ENDBRANCH  18  19
ENDBRANCH  16  18
ENDBRANCH  15  16
ENDBRANCH  14  15
ENDBRANCH   1  14
TORSDOF 17
