REMARK SMILES CC(C)C1=CC2=C(CC3=CCCC(C)(C)[C@@H]3CC2)C(=O)C1=O
REMARK SMILES IDX 8 1 7 2 4 3 5 4 21 5 6 6 19 7 22 8 20 9 2 11 1 12 3 13 9 14
REMARK SMILES IDX 10 15 16 16 11 17 13 18 12 19 14 20 15 21 17 22 18 23
REMARK H PARENT
REMARK Flexibility Score:   13.900
ROOT
ATOM      1  C   UNL     1       0.707  -1.471   0.000  1.00  0.00     0.071 C 
ENDROOT
BRANCH   1   2
ATOM      2  C   UNL     1      -0.572  -0.688   0.000  1.00  0.00     0.011 C 
ATOM      3  C   UNL     1      -3.335   0.481   0.000  1.00  0.00     0.006 C 
ATOM      4  C   UNL     1      -2.138   1.385   0.000  1.00  0.00     0.012 C 
ATOM      5  C   UNL     1      -3.150  -1.008   0.000  1.00  0.00     0.229 C 
ATOM      6  C   UNL     1      -0.757   0.801   0.000  1.00  0.00    -0.040 CG0
ATOM      7  C   UNL     1      -1.768  -1.592   0.000  1.00  0.00     0.229 C 
ATOM      8  O   UNL     1      -4.347  -1.912   0.000  1.00  0.00    -0.285 OA
ATOM      9  O   UNL     1      -1.584  -3.080   0.000  1.00  0.00    -0.285 OA
ATOM     10  G   UNL     1       0.292   1.874   0.000  1.00  0.00     0.000 G0
BRANCH   3  11
ATOM     11  C   UNL     1      -4.716   1.065   0.000  1.00  0.00     0.017 C 
ATOM     12  C   UNL     1      -4.901   2.554   0.000  1.00  0.00     0.012 C 
ATOM     13  C   UNL     1      -5.913   0.161   0.000  1.00  0.00     0.012 C 
ENDBRANCH   3  11
ENDBRANCH   1   2
BRANCH   1  14
ATOM     14  C   UNL     1       2.117  -0.960   0.000  1.00  0.00    -0.066 C 
ATOM     15  C   UNL     1       3.109  -2.086   0.000  1.00  0.00    -0.027 C 
ATOM     16  C   UNL     1       2.597   0.462   0.000  1.00  0.00     0.021 C 
ATOM     17  C   UNL     1       4.579  -1.790   0.000  1.00  0.00     0.028 C 
ATOM     18  C   UNL     1       4.067   0.757   0.000  1.00  0.00    -0.029 C 
ATOM     19  C   UNL     1       5.059  -0.369   0.000  1.00  0.00     0.011 C 
ATOM     20  C   UNL     1       3.521   2.154   0.000  1.00  0.00     0.012 C 
ATOM     21  C   UNL     1       5.348   1.538   0.000  1.00  0.00     0.012 C 
BRANCH  16  22
ATOM     22  C   UNL     1       1.784   1.723   0.000  1.00  0.00     0.013 C 
BRANCH  22  23
ATOM     23  C   UNL     1       0.292   1.874   0.000  1.00  0.00     0.036 CG0
ATOM     24  G   UNL     1      -0.757   0.801   0.000  1.00  0.00     0.000 G0
ENDBRANCH  22  23
ENDBRANCH  16  22
ENDBRANCH   1  14
TORSDOF 1
