REMARK SMILES COc1ccc2[nH]c3c(Cc4ccc(O)cc4)nccc3c2c1
REMARK SMILES IDX 10 1 9 2 3 3 4 4 23 5 5 6 22 7 6 8 21 9 7 10 20 11 8 12
REMARK SMILES IDX 19 13 18 14 2 16 1 17 11 18 12 19 17 20 13 21 16 22 14 23
REMARK SMILES IDX 15 24
REMARK H PARENT 7 15 15 25
ROOT
ATOM      1  C   UNL     1       2.036   1.003   0.000  1.00  0.00     0.094 C 
ENDROOT
BRANCH   1   2
ATOM      2  C   UNL     1       1.038  -0.117   0.000  1.00  0.00     0.069 A 
ATOM      3  C   UNL     1      -5.387  -0.070   0.000  1.00  0.00     0.119 A 
ATOM      4  C   UNL     1      -5.238   1.422   0.000  1.00  0.00     0.048 A 
ATOM      5  C   UNL     1      -4.169  -0.946   0.000  1.00  0.00     0.057 A 
ATOM      6  C   UNL     1      -3.871   2.039   0.000  1.00  0.00     0.030 A 
ATOM      7  C   UNL     1      -2.802  -0.329   0.000  1.00  0.00     0.011 A 
ATOM      8  C   UNL     1      -2.653   1.164   0.000  1.00  0.00     0.047 A 
ATOM      9  C   UNL     1      -1.429  -0.932   0.000  1.00  0.00     0.011 A 
ATOM     10  N   UNL     1      -1.187   1.483   0.000  1.00  0.00    -0.353 N 
ATOM     11  C   UNL     1      -0.958  -2.356   0.000  1.00  0.00     0.031 A 
ATOM     12  C   UNL     1      -0.430   0.188   0.000  1.00  0.00     0.069 A 
ATOM     13  C   UNL     1       0.511  -2.661   0.000  1.00  0.00     0.112 A 
ATOM     14  N   UNL     1       1.509  -1.541   0.000  1.00  0.00    -0.259 NA
ATOM     15  H   UNL     1       0.000   0.000   0.000  1.00  0.00     0.167 HD
BRANCH   3  16
ATOM     16  O   UNL     1      -6.754  -0.687   0.000  1.00  0.00    -0.497 OA
ATOM     17  C   UNL     1      -7.972   0.188   0.000  1.00  0.00     0.278 C 
ENDBRANCH   3  16
ENDBRANCH   1   2
BRANCH   1  18
ATOM     18  C   UNL     1       3.505   0.699   0.000  1.00  0.00    -0.042 A 
ATOM     19  C   UNL     1       3.976  -0.726   0.000  1.00  0.00     0.008 A 
ATOM     20  C   UNL     1       4.503   1.818   0.000  1.00  0.00     0.008 A 
ATOM     21  C   UNL     1       5.445  -1.030   0.000  1.00  0.00     0.046 A 
ATOM     22  C   UNL     1       5.972   1.514   0.000  1.00  0.00     0.046 A 
ATOM     23  C   UNL     1       6.443   0.090   0.000  1.00  0.00     0.115 A 
BRANCH  23  24
ATOM     24  O   UNL     1       7.912  -0.215   0.000  1.00  0.00    -0.508 OA
ATOM     25  H   UNL     1       0.000   0.000   0.000  1.00  0.00     0.293 HD
ENDBRANCH  23  24
ENDBRANCH   1  18
TORSDOF 4
