REMARK SMILES COc1c(O)ccc2c1[C@@H](CC(C)=O)N(C)c1c-2ccc2cc3c(cc12)OCO3
REMARK SMILES IDX 3 1 4 2 6 3 7 4 8 5 9 6 10 7 15 8 16 9 17 10 18 11 19 12
REMARK SMILES IDX 20 13 21 14 22 15 23 16 24 17 25 18 26 19 27 20 28 21 29 22
REMARK SMILES IDX 2 23 1 24 5 25 11 27 12 28 13 29 14 30
REMARK H PARENT 5 26
ROOT
ATOM      1  C   UNL     1       3.907   0.243   0.000  1.00  0.00     0.166 A 
ATOM      2  C   UNL     1       4.716   1.506   0.000  1.00  0.00     0.158 A 
ATOM      3  C   UNL     1       4.028   2.839   0.000  1.00  0.00     0.051 A 
ATOM      4  C   UNL     1       2.529   2.909   0.000  1.00  0.00     0.013 A 
ATOM      5  C   UNL     1       1.720   1.646   0.000  1.00  0.00    -0.007 A 
ATOM      6  C   UNL     1       2.408   0.313   0.000  1.00  0.00     0.029 A 
ATOM      7  C   UNL     1       1.599  -0.950   0.000  1.00  0.00     0.124 C 
ATOM      8  N   UNL     1       0.100  -0.880   0.000  1.00  0.00    -0.366 N 
ATOM      9  C   UNL     1      -0.709  -2.142   0.000  1.00  0.00     0.144 C 
ATOM     10  C   UNL     1      -0.588   0.453   0.000  1.00  0.00     0.053 A 
ATOM     11  C   UNL     1       0.221   1.716   0.000  1.00  0.00     0.006 A 
ATOM     12  C   UNL     1      -0.467   3.048   0.000  1.00  0.00     0.011 A 
ATOM     13  C   UNL     1      -1.966   3.118   0.000  1.00  0.00     0.009 A 
ATOM     14  C   UNL     1      -2.776   1.855   0.000  1.00  0.00    -0.012 A 
ATOM     15  C   UNL     1      -4.274   1.925   0.000  1.00  0.00     0.059 A 
ATOM     16  C   UNL     1      -5.083   0.662   0.000  1.00  0.00     0.166 A 
ATOM     17  C   UNL     1      -4.395  -0.670   0.000  1.00  0.00     0.166 A 
ATOM     18  C   UNL     1      -2.896  -0.740   0.000  1.00  0.00     0.061 A 
ATOM     19  C   UNL     1      -2.087   0.523   0.000  1.00  0.00     0.010 A 
ATOM     20  O   UNL     1      -5.449  -1.737   0.000  1.00  0.00    -0.454 OA
ATOM     21  C   UNL     1      -6.790  -1.064   0.000  1.00  0.00     0.468 C 
ATOM     22  O   UNL     1      -6.564   0.419   0.000  1.00  0.00    -0.454 OA
ENDROOT
BRANCH   1  23
ATOM     23  O   UNL     1       4.596  -1.089   0.000  1.00  0.00    -0.492 OA
ATOM     24  C   UNL     1       6.094  -1.159   0.000  1.00  0.00     0.278 C 
ENDBRANCH   1  23
BRANCH   2  25
ATOM     25  O   UNL     1       6.215   1.436   0.000  1.00  0.00    -0.504 OA
ATOM     26  H   UNL     1       0.000   0.000   0.000  1.00  0.00     0.293 HD
ENDBRANCH   2  25
BRANCH   7  27
ATOM     27  C   UNL     1       2.288  -2.282   0.000  1.00  0.00     0.105 C 
BRANCH  27  28
ATOM     28  C   UNL     1       1.478  -3.545   0.000  1.00  0.00     0.132 C 
ATOM     29  C   UNL     1       2.167  -4.877   0.000  1.00  0.00     0.087 C 
ATOM     30  O   UNL     1      -0.021  -3.475   0.000  1.00  0.00    -0.300 OA
ENDBRANCH  27  28
ENDBRANCH   7  27
TORSDOF 4
