REMARK SMILES C=C1CC[C@@H]2[C@](C)(CCC[C@]2(C)C(=O)O)[C@H]1CC/C(C)=C/C(=O)O
REMARK SMILES IDX 18 1 17 2 16 3 2 4 3 5 4 6 6 7 5 8 8 9 11 10 9 11 10 12 1 13
REMARK SMILES IDX 7 14 12 15 13 16 14 17 15 18 19 20 20 21 21 22 22 23 23 24
REMARK SMILES IDX 24 25
REMARK H PARENT 15 19 24 26
ROOT
ATOM      1  C   UNL     1      -2.706   0.501   0.000  1.00  0.00     0.031 C 
ENDROOT
BRANCH   1   2
ATOM      2  C   UNL     1      -1.403  -0.242   0.000  1.00  0.00     0.013 C 
BRANCH   2   3
ATOM      3  C   UNL     1      -0.108   0.515   0.000  1.00  0.00     0.021 C 
ATOM      4  C   UNL     1      -0.117   2.015   0.000  1.00  0.00    -0.074 C 
ATOM      5  C   UNL     1       1.178   2.773   0.000  1.00  0.00     0.031 C 
ATOM      6  C   UNL     1       2.482   2.030   0.000  1.00  0.00     0.010 C 
ATOM      7  C   UNL     1       1.195  -0.227   0.000  1.00  0.00    -0.022 C 
ATOM      8  C   UNL     1       2.490   0.530   0.000  1.00  0.00     0.013 C 
ATOM      9  C   UNL     1       1.204  -1.727   0.000  1.00  0.00     0.008 C 
ATOM     10  C   UNL     1       3.793  -0.213   0.000  1.00  0.00     0.068 C 
ATOM     11  C   UNL     1       2.507  -2.470   0.000  1.00  0.00     0.002 C 
ATOM     12  C   UNL     1       3.802  -1.713   0.000  1.00  0.00     0.019 C 
ATOM     13  C   UNL     1      -1.420   2.758   0.000  1.00  0.00     0.008 C 
ATOM     14  C   UNL     1      -0.100  -0.985   0.000  1.00  0.00     0.012 C 
ATOM     15  C   UNL     1       4.298   1.200   0.000  1.00  0.00     0.024 C 
BRANCH  10  16
ATOM     16  C   UNL     1       5.272  -0.465   0.000  1.00  0.00     0.309 C 
ATOM     17  O   UNL     1       6.229   0.690   0.000  1.00  0.00    -0.252 OA
BRANCH  16  18
ATOM     18  O   UNL     1       5.793  -1.871   0.000  1.00  0.00    -0.481 OA
ATOM     19  H   UNL     1       0.000   0.000   0.000  1.00  0.00     0.296 HD
ENDBRANCH  16  18
ENDBRANCH  10  16
ENDBRANCH   2   3
ENDBRANCH   1   2
BRANCH   1  20
ATOM     20  C   UNL     1      -4.001  -0.257   0.000  1.00  0.00    -0.066 C 
ATOM     21  C   UNL     1      -3.993  -1.757   0.000  1.00  0.00     0.040 C 
BRANCH  20  22
ATOM     22  C   UNL     1      -5.304   0.486   0.000  1.00  0.00     0.092 C 
BRANCH  22  23
ATOM     23  C   UNL     1      -6.599  -0.271   0.000  1.00  0.00     0.328 C 
ATOM     24  O   UNL     1      -6.590  -1.771   0.000  1.00  0.00    -0.247 OA
BRANCH  23  25
ATOM     25  O   UNL     1      -7.902   0.471   0.000  1.00  0.00    -0.478 OA
ATOM     26  H   UNL     1       0.000   0.000   0.000  1.00  0.00     0.297 HD
ENDBRANCH  23  25
ENDBRANCH  22  23
ENDBRANCH  20  22
ENDBRANCH   1  20
TORSDOF 8
