REMARK SMILES C=C(CC[C@@H](C)[C@H]1CC[C@H]2[C@@H]3CC=C4C[C@@H](O)CC[C@]4(C)[C@H]3CC[C@]12C)C(C)C
REMARK SMILES IDX 4 1 3 2 2 3 1 4 27 5 28 6 29 7 5 8 6 9 7 10 8 11 25 12 9 13
REMARK SMILES IDX 24 14 10 15 23 16 11 17 22 18 12 19 20 20 13 21 19 22 14 23
REMARK SMILES IDX 18 24 15 25 16 26 26 27 21 28 17 29
REMARK H PARENT 17 30
ROOT
ATOM      1  C   UNL     1      -3.800  -0.245   0.000  1.00  0.00     0.008 C 
ENDROOT
BRANCH   1   2
ATOM      2  C   UNL     1      -5.223   0.229   0.000  1.00  0.00     0.031 C 
BRANCH   2   3
ATOM      3  C   UNL     1      -5.524   1.699   0.000  1.00  0.00    -0.075 C 
ATOM      4  C   UNL     1      -6.947   2.172   0.000  1.00  0.00     0.008 C 
BRANCH   3   5
ATOM      5  C   UNL     1      -4.402   2.694   0.000  1.00  0.00     0.008 C 
ATOM      6  C   UNL     1      -4.703   4.163   0.000  1.00  0.00     0.012 C 
ATOM      7  C   UNL     1      -2.979   2.220   0.000  1.00  0.00     0.012 C 
ENDBRANCH   3   5
ENDBRANCH   2   3
ENDBRANCH   1   2
BRANCH   1   8
ATOM      8  C   UNL     1      -3.499  -1.714   0.000  1.00  0.00    -0.010 C 
ATOM      9  C   UNL     1      -4.621  -2.710   0.000  1.00  0.00     0.008 C 
BRANCH   8  10
ATOM     10  C   UNL     1      -2.076  -2.188   0.000  1.00  0.00    -0.002 C 
ATOM     11  C   UNL     1      -1.623  -3.618   0.000  1.00  0.00     0.005 C 
ATOM     12  C   UNL     1      -0.856  -1.315   0.000  1.00  0.00    -0.026 C 
ATOM     13  C   UNL     1      -0.123  -3.629   0.000  1.00  0.00     0.005 C 
ATOM     14  C   UNL     1      -0.688   0.175   0.000  1.00  0.00     0.007 C 
ATOM     15  C   UNL     1       0.351  -2.206   0.000  1.00  0.00    -0.001 C 
ATOM     16  C   UNL     1       0.687   0.775   0.000  1.00  0.00     0.005 C 
ATOM     17  C   UNL     1       1.726  -1.606   0.000  1.00  0.00     0.000 C 
ATOM     18  C   UNL     1       1.894  -0.115   0.000  1.00  0.00     0.003 C 
ATOM     19  C   UNL     1       2.933  -2.497   0.000  1.00  0.00     0.031 C 
ATOM     20  C   UNL     1       3.268   0.485   0.000  1.00  0.00    -0.008 C 
ATOM     21  C   UNL     1       4.308  -1.897   0.000  1.00  0.00    -0.027 C 
ATOM     22  C   UNL     1       3.436   1.975   0.000  1.00  0.00     0.014 C 
ATOM     23  C   UNL     1       4.476  -0.406   0.000  1.00  0.00    -0.065 C 
ATOM     24  C   UNL     1       4.811   2.575   0.000  1.00  0.00     0.033 C 
ATOM     25  C   UNL     1       5.850   0.194   0.000  1.00  0.00     0.063 C 
ATOM     26  C   UNL     1       6.018   1.685   0.000  1.00  0.00     0.118 C 
ATOM     27  C   UNL     1      -2.149  -0.556   0.000  1.00  0.00     0.012 C 
ATOM     28  C   UNL     1       2.062   1.375   0.000  1.00  0.00     0.016 C 
BRANCH  26  29
ATOM     29  O   UNL     1       7.393   2.285   0.000  1.00  0.00    -0.393 OA
ATOM     30  H   UNL     1       0.000   0.000   0.000  1.00  0.00     0.210 HD
ENDBRANCH  26  29
ENDBRANCH   8  10
ENDBRANCH   1   8
TORSDOF 6
