REMARK SMILES COc1ccc([C@H]2c3cc4c(cc3C[C@@H](C)[C@@H]2C)OCO4)cc1OC
REMARK SMILES IDX 3 1 4 2 5 3 6 4 22 5 23 6 2 7 1 8 24 9 25 10 7 11 8 12 17 13
REMARK SMILES IDX 9 14 13 15 15 16 10 17 12 18 14 19 11 20 21 21 19 22 20 23
REMARK SMILES IDX 18 24 16 25
REMARK H PARENT
ROOT
ATOM      1  C   UNL     1       3.984   0.547   0.000  1.00  0.00     0.160 A 
ATOM      2  C   UNL     1       3.856  -0.947   0.000  1.00  0.00     0.051 A 
ATOM      3  C   UNL     1       2.497  -1.583   0.000  1.00  0.00     0.008 A 
ATOM      4  C   UNL     1       1.267  -0.725   0.000  1.00  0.00    -0.036 A 
ATOM      5  C   UNL     1       1.395   0.770   0.000  1.00  0.00     0.054 A 
ATOM      6  C   UNL     1       2.754   1.406   0.000  1.00  0.00     0.161 A 
ENDROOT
BRANCH   1   7
ATOM      7  O   UNL     1       5.342   1.183   0.000  1.00  0.00    -0.493 OA
ATOM      8  C   UNL     1       6.572   0.325   0.000  1.00  0.00     0.278 C 
ENDBRANCH   1   7
BRANCH   6   9
ATOM      9  O   UNL     1       2.882   2.900   0.000  1.00  0.00    -0.493 OA
ATOM     10  C   UNL     1       1.652   3.759   0.000  1.00  0.00     0.278 C 
ENDBRANCH   6   9
BRANCH   4  11
ATOM     11  C   UNL     1      -0.091  -1.361   0.000  1.00  0.00     0.053 C 
ATOM     12  C   UNL     1      -1.322  -0.503   0.000  1.00  0.00    -0.033 A 
ATOM     13  C   UNL     1      -0.220  -2.856   0.000  1.00  0.00     0.001 C 
ATOM     14  C   UNL     1      -1.193   0.992   0.000  1.00  0.00     0.055 A 
ATOM     15  C   UNL     1      -2.680  -1.139   0.000  1.00  0.00    -0.040 A 
ATOM     16  C   UNL     1      -1.578  -3.492   0.000  1.00  0.00    -0.006 C 
ATOM     17  C   UNL     1      -2.423   1.850   0.000  1.00  0.00     0.166 A 
ATOM     18  C   UNL     1      -3.910  -0.280   0.000  1.00  0.00     0.054 A 
ATOM     19  C   UNL     1      -2.808  -2.633   0.000  1.00  0.00     0.039 C 
ATOM     20  C   UNL     1      -3.782   1.214   0.000  1.00  0.00     0.166 A 
ATOM     21  O   UNL     1      -2.609   3.339   0.000  1.00  0.00    -0.454 OA
ATOM     22  O   UNL     1      -4.807   2.310   0.000  1.00  0.00    -0.454 OA
ATOM     23  C   UNL     1      -4.082   3.623   0.000  1.00  0.00     0.468 C 
ATOM     24  C   UNL     1       1.010  -3.714   0.000  1.00  0.00     0.009 C 
ATOM     25  C   UNL     1      -1.707  -4.986   0.000  1.00  0.00     0.008 C 
ENDBRANCH   4  11
TORSDOF 3
