REMARK SMILES COC(=O)[C@H](O)[C@H]1[C@]2(C)C[C@]3(O)[C@@H]([C@@H](O)[C@@H]2O)[C@@]2(O)C(CC[C@@]4(C)[C@H](c5ccoc5)OC(=O)C[C@@]42O)[C@]13C
REMARK SMILES IDX 5 1 3 2 4 3 2 4 1 5 6 6 7 8 8 9 37 10 10 11 16 12 20 13
REMARK SMILES IDX 11 14 14 15 18 16 21 17 13 18 35 19 22 20 34 21 23 22 32 23
REMARK SMILES IDX 25 24 31 25 9 26 38 27 24 28 33 29 17 30 12 32 15 34 19 36
REMARK SMILES IDX 36 38 26 40 30 41 27 42 29 43 28 44
REMARK H PARENT 6 7 17 31 12 33 15 35 19 37 36 39
ROOT
ATOM      1  C   UNL     1      -3.241  -2.039   0.000  1.00  0.00     0.228 C 
ENDROOT
BRANCH   1   2
ATOM      2  C   UNL     1      -4.650  -2.553   0.000  1.00  0.00     0.335 C 
ATOM      3  O   UNL     1      -5.800  -1.590   0.000  1.00  0.00    -0.249 OA
BRANCH   2   4
ATOM      4  O   UNL     1      -4.909  -4.031   0.000  1.00  0.00    -0.467 OA
ATOM      5  C   UNL     1      -6.318  -4.545   0.000  1.00  0.00     0.282 C 
ENDBRANCH   2   4
ENDBRANCH   1   2
BRANCH   1   6
ATOM      6  O   UNL     1      -2.091  -3.002   0.000  1.00  0.00    -0.381 OA
ATOM      7  H   UNL     1       0.000   0.000   0.000  1.00  0.00     0.211 HD
ENDBRANCH   1   6
BRANCH   1   8
ATOM      8  C   UNL     1      -2.982  -0.561   0.000  1.00  0.00     0.047 C 
ATOM      9  C   UNL     1      -4.025   0.516   0.000  1.00  0.00     0.005 C 
ATOM     10  C   UNL     1      -1.635   0.097   0.000  1.00  0.00     0.009 C 
ATOM     11  C   UNL     1      -3.322   1.842   0.000  1.00  0.00     0.046 C 
ATOM     12  C   UNL     1      -3.922   2.013   0.000  1.00  0.00     0.150 C 
ATOM     13  C   UNL     1      -0.157  -0.162   0.000  1.00  0.00     0.034 C 
ATOM     14  C   UNL     1      -1.845   1.583   0.000  1.00  0.00     0.080 C 
ATOM     15  C   UNL     1      -2.575   2.672   0.000  1.00  0.00     0.152 C 
ATOM     16  C   UNL     1       0.546   1.164   0.000  1.00  0.00     0.106 C 
ATOM     17  C   UNL     1       0.639  -1.433   0.000  1.00  0.00     0.008 C 
ATOM     18  C   UNL     1      -0.497   2.242   0.000  1.00  0.00     0.088 C 
ATOM     19  C   UNL     1       2.045   1.218   0.000  1.00  0.00     0.114 C 
ATOM     20  C   UNL     1       2.138  -1.379   0.000  1.00  0.00     0.014 C 
ATOM     21  C   UNL     1       2.748   2.543   0.000  1.00  0.00     0.161 C 
ATOM     22  C   UNL     1       2.841  -0.054   0.000  1.00  0.00     0.041 C 
ATOM     23  C   UNL     1       4.247   2.596   0.000  1.00  0.00     0.309 C 
ATOM     24  C   UNL     1       4.340   0.000   0.000  1.00  0.00     0.219 C 
ATOM     25  O   UNL     1       5.043   1.325   0.000  1.00  0.00    -0.457 OA
ATOM     26  C   UNL     1      -5.510   0.306   0.000  1.00  0.00     0.015 C 
ATOM     27  C   UNL     1      -1.424  -1.388   0.000  1.00  0.00     0.015 C 
ATOM     28  C   UNL     1       3.637  -1.325   0.000  1.00  0.00     0.019 C 
ATOM     29  O   UNL     1       4.949   3.922   0.000  1.00  0.00    -0.252 OA
BRANCH  12  30
ATOM     30  O   UNL     1      -5.167   2.850   0.000  1.00  0.00    -0.390 OA
ATOM     31  H   UNL     1       0.000   0.000   0.000  1.00  0.00     0.211 HD
ENDBRANCH  12  30
BRANCH  14  32
ATOM     32  O   UNL     1      -2.144   2.321   0.000  1.00  0.00    -0.389 OA
ATOM     33  H   UNL     1       0.000   0.000   0.000  1.00  0.00     0.211 HD
ENDBRANCH  14  32
BRANCH  15  34
ATOM     34  O   UNL     1      -2.471   4.168   0.000  1.00  0.00    -0.390 OA
ATOM     35  H   UNL     1       0.000   0.000   0.000  1.00  0.00     0.211 HD
ENDBRANCH  15  34
BRANCH  16  36
ATOM     36  O   UNL     1       1.106   2.555   0.000  1.00  0.00    -0.386 OA
ATOM     37  H   UNL     1       0.000   0.000   0.000  1.00  0.00     0.211 HD
ENDBRANCH  16  36
BRANCH  19  38
ATOM     38  O   UNL     1       1.342  -0.108   0.000  1.00  0.00    -0.386 OA
ATOM     39  H   UNL     1       0.000   0.000   0.000  1.00  0.00     0.211 HD
ENDBRANCH  19  38
BRANCH  24  40
ATOM     40  C   UNL     1       5.136  -1.271   0.000  1.00  0.00     0.031 A 
ATOM     41  C   UNL     1       6.633  -1.374   0.000  1.00  0.00     0.202 A 
ATOM     42  C   UNL     1       4.576  -2.663   0.000  1.00  0.00     0.049 A 
ATOM     43  O   UNL     1       6.997  -2.829   0.000  1.00  0.00    -0.472 OA
ATOM     44  C   UNL     1       5.726  -3.626   0.000  1.00  0.00     0.195 A 
ENDBRANCH  24  40
ENDBRANCH   1   8
TORSDOF 10
