REMARK SMILES C[C@@]12OC(=O)[C@H](O)[C@]1(O)[C@@]1(C)C3[C@@H](C[C@@]4(C)[C@H](c5ccoc5)C[C@H]5O[C@]54[C@]3(C)O)O[C@H]1CC2=O
REMARK SMILES IDX 1 1 2 2 3 3 4 4 5 5 6 6 8 7 10 8 11 9 12 10 13 11 14 12
REMARK SMILES IDX 15 13 16 14 17 15 23 16 24 17 25 18 26 19 27 20 28 21 30 22
REMARK SMILES IDX 31 23 32 24 33 25 34 26 9 27 7 29 29 31 18 33 22 34 19 35
REMARK SMILES IDX 21 36 20 37
REMARK H PARENT 9 28 7 30 29 32
ROOT
ATOM      1  C   UNL     1      -5.613   1.288   0.000  1.00  0.00     0.069 C 
ATOM      2  C   UNL     1      -4.248   0.667   0.000  1.00  0.00     0.199 C 
ATOM      3  O   UNL     1      -5.371  -0.328   0.000  1.00  0.00    -0.446 OA
ATOM      4  C   UNL     1      -4.772  -1.703   0.000  1.00  0.00     0.339 C 
ATOM      5  O   UNL     1      -5.532  -2.996   0.000  1.00  0.00    -0.249 OA
ATOM      6  C   UNL     1      -3.279  -1.558   0.000  1.00  0.00     0.261 C 
ATOM      7  C   UNL     1      -2.955  -0.093   0.000  1.00  0.00     0.156 C 
ATOM      8  C   UNL     1      -1.650   0.646   0.000  1.00  0.00     0.039 C 
ATOM      9  C   UNL     1      -1.505  -0.847   0.000  1.00  0.00     0.018 C 
ATOM     10  C   UNL     1      -0.227   0.171   0.000  1.00  0.00     0.064 C 
ATOM     11  C   UNL     1       0.664   1.377   0.000  1.00  0.00     0.126 C 
ATOM     12  C   UNL     1       2.155   1.208   0.000  1.00  0.00     0.043 C 
ATOM     13  C   UNL     1       2.754  -0.167   0.000  1.00  0.00     0.012 C 
ATOM     14  C   UNL     1       3.766   0.940   0.000  1.00  0.00     0.015 C 
ATOM     15  C   UNL     1       4.176  -0.642   0.000  1.00  0.00     0.034 C 
ATOM     16  C   UNL     1       4.164  -2.142   0.000  1.00  0.00     0.044 C 
ATOM     17  C   UNL     1       2.734  -2.594   0.000  1.00  0.00     0.155 C 
ATOM     18  O   UNL     1       1.241  -2.738   0.000  1.00  0.00    -0.362 OA
ATOM     19  C   UNL     1       1.862  -1.373   0.000  1.00  0.00     0.129 C 
ATOM     20  C   UNL     1       0.372  -1.204   0.000  1.00  0.00     0.100 C 
ATOM     21  C   UNL     1      -1.087  -1.555   0.000  1.00  0.00     0.046 C 
ATOM     22  O   UNL     1      -0.208   2.598   0.000  1.00  0.00    -0.373 OA
ATOM     23  C   UNL     1      -1.638   2.146   0.000  1.00  0.00     0.135 C 
ATOM     24  C   UNL     1      -2.931   2.906   0.000  1.00  0.00     0.113 C 
ATOM     25  C   UNL     1      -4.236   2.167   0.000  1.00  0.00     0.181 C 
ATOM     26  O   UNL     1      -5.529   2.927   0.000  1.00  0.00    -0.295 OA
ENDROOT
BRANCH   7  27
ATOM     27  O   UNL     1      -3.100   1.399   0.000  1.00  0.00    -0.381 OA
ATOM     28  H   UNL     1       0.000   0.000   0.000  1.00  0.00     0.211 HD
ENDBRANCH   7  27
BRANCH   6  29
ATOM     29  O   UNL     1      -2.284  -2.681   0.000  1.00  0.00    -0.379 OA
ATOM     30  H   UNL     1       0.000   0.000   0.000  1.00  0.00     0.211 HD
ENDBRANCH   6  29
BRANCH  20  31
ATOM     31  O   UNL     1       0.099  -2.679   0.000  1.00  0.00    -0.387 OA
ATOM     32  H   UNL     1       0.000   0.000   0.000  1.00  0.00     0.211 HD
ENDBRANCH  20  31
BRANCH  15  33
ATOM     33  C   UNL     1       5.397   0.230   0.000  1.00  0.00    -0.006 A 
ATOM     34  C   UNL     1       5.409   1.730   0.000  1.00  0.00     0.198 A 
ATOM     35  C   UNL     1       6.820  -0.245   0.000  1.00  0.00     0.046 A 
ATOM     36  O   UNL     1       6.839   2.182   0.000  1.00  0.00    -0.472 OA
ATOM     37  C   UNL     1       7.711   0.962   0.000  1.00  0.00     0.195 A 
ENDBRANCH  15  33
TORSDOF 4
