REMARK SMILES COC1=CC(=O)O[C@@H](CCc2ccc3c(c2)OCO3)C1
REMARK SMILES IDX 3 1 4 2 5 3 6 4 7 5 8 6 20 7 2 8 1 9 9 10 10 11 11 12 12 13
REMARK SMILES IDX 16 14 13 15 15 16 14 17 17 18 19 19 18 20
REMARK H PARENT
ROOT
ATOM      1  C   UNL     1       4.090   1.069   0.000  1.00  0.00     0.106 C 
ATOM      2  C   UNL     1       5.068  -0.069   0.000  1.00  0.00     0.135 C 
ATOM      3  C   UNL     1       4.571  -1.484   0.000  1.00  0.00     0.334 C 
ATOM      4  O   UNL     1       5.549  -2.622   0.000  1.00  0.00    -0.247 OA
ATOM      5  O   UNL     1       3.097  -1.762   0.000  1.00  0.00    -0.459 OA
ATOM      6  C   UNL     1       2.119  -0.624   0.000  1.00  0.00     0.184 C 
ATOM      7  C   UNL     1       2.616   0.791   0.000  1.00  0.00     0.120 C 
ENDROOT
BRANCH   1   8
ATOM      8  O   UNL     1       4.587   2.484   0.000  1.00  0.00    -0.501 OA
ATOM      9  C   UNL     1       6.061   2.762   0.000  1.00  0.00     0.278 C 
ENDBRANCH   1   8
BRANCH   6  10
ATOM     10  C   UNL     1       0.645  -0.902   0.000  1.00  0.00     0.050 C 
BRANCH  10  11
ATOM     11  C   UNL     1      -0.332   0.236   0.000  1.00  0.00     0.039 C 
BRANCH  11  12
ATOM     12  C   UNL     1      -1.806  -0.042   0.000  1.00  0.00    -0.044 A 
ATOM     13  C   UNL     1      -2.303  -1.457   0.000  1.00  0.00     0.008 A 
ATOM     14  C   UNL     1      -2.784   1.096   0.000  1.00  0.00     0.054 A 
ATOM     15  C   UNL     1      -3.777  -1.735   0.000  1.00  0.00     0.051 A 
ATOM     16  C   UNL     1      -4.258   0.818   0.000  1.00  0.00     0.166 A 
ATOM     17  C   UNL     1      -4.754  -0.597   0.000  1.00  0.00     0.165 A 
ATOM     18  O   UNL     1      -5.450   1.728   0.000  1.00  0.00    -0.454 OA
ATOM     19  O   UNL     1      -6.254  -0.562   0.000  1.00  0.00    -0.454 OA
ATOM     20  C   UNL     1      -6.684   0.874   0.000  1.00  0.00     0.468 C 
ENDBRANCH  11  12
ENDBRANCH  10  11
ENDBRANCH   6  10
TORSDOF 4
