REMARK SMILES COc1ccc2c(c1)OCc1c-2oc2cc(OC)ccc12
REMARK SMILES IDX 3 1 4 2 5 3 6 4 7 5 8 6 9 7 10 8 11 9 12 10 13 11 14 12
REMARK SMILES IDX 15 13 16 14 19 15 20 16 21 17 2 18 1 19 17 20 18 21
REMARK H PARENT
ROOT
ATOM      1  C   UNL     1      -4.738   0.159   0.000  1.00  0.00     0.122 A 
ATOM      2  C   UNL     1      -4.017   1.474   0.000  1.00  0.00     0.047 A 
ATOM      3  C   UNL     1      -2.517   1.508   0.000  1.00  0.00     0.020 A 
ATOM      4  C   UNL     1      -1.739   0.225   0.000  1.00  0.00     0.060 A 
ATOM      5  C   UNL     1      -2.460  -1.090   0.000  1.00  0.00     0.134 A 
ATOM      6  C   UNL     1      -3.959  -1.123   0.000  1.00  0.00     0.093 A 
ATOM      7  O   UNL     1      -1.681  -2.372   0.000  1.00  0.00    -0.488 OA
ATOM      8  C   UNL     1      -0.182  -2.339   0.000  1.00  0.00     0.270 C 
ATOM      9  C   UNL     1       0.539  -1.024   0.000  1.00  0.00     0.044 A 
ATOM     10  C   UNL     1      -0.239   0.259   0.000  1.00  0.00     0.145 A 
ATOM     11  O   UNL     1       0.740   1.395   0.000  1.00  0.00    -0.455 OA
ATOM     12  C   UNL     1       2.123   0.816   0.000  1.00  0.00     0.138 A 
ATOM     13  C   UNL     1       3.480   1.456   0.000  1.00  0.00     0.094 A 
ATOM     14  C   UNL     1       4.712   0.601   0.000  1.00  0.00     0.122 A 
ATOM     15  C   UNL     1       4.589  -0.894   0.000  1.00  0.00     0.047 A 
ATOM     16  C   UNL     1       3.232  -1.534   0.000  1.00  0.00     0.016 A 
ATOM     17  C   UNL     1       1.999  -0.679   0.000  1.00  0.00     0.028 A 
ENDROOT
BRANCH   1  18
ATOM     18  O   UNL     1      -6.238   0.126   0.000  1.00  0.00    -0.497 OA
ATOM     19  C   UNL     1      -7.016   1.408   0.000  1.00  0.00     0.278 C 
ENDBRANCH   1  18
BRANCH  14  20
ATOM     20  O   UNL     1       6.069   1.241   0.000  1.00  0.00    -0.497 OA
ATOM     21  C   UNL     1       7.302   0.387   0.000  1.00  0.00     0.278 C 
ENDBRANCH  14  20
TORSDOF 2
