REMARK SMILES O=C(C=Cc1ccc(O)cc1)c1ccc(O)cc1O
REMARK SMILES IDX 3 1 2 2 1 3 12 4 13 5 18 6 14 7 17 8 15 9 19 10 16 12 4 14
REMARK SMILES IDX 5 15 6 16 11 17 7 18 10 19 8 20 9 21
REMARK H PARENT 19 11 16 13 9 22
ROOT
ATOM      1  C   UNL     1       0.252  -0.409   0.000  1.00  0.00     0.053 C 
ENDROOT
BRANCH   1   2
ATOM      2  C   UNL     1      -1.084  -1.089   0.000  1.00  0.00     0.189 C 
ATOM      3  O   UNL     1      -1.163  -2.587   0.000  1.00  0.00    -0.289 OA
BRANCH   2   4
ATOM      4  C   UNL     1      -2.342  -0.272   0.000  1.00  0.00     0.064 A 
ATOM      5  C   UNL     1      -2.263   1.226   0.000  1.00  0.00     0.020 A 
ATOM      6  C   UNL     1      -3.679  -0.953   0.000  1.00  0.00     0.130 A 
ATOM      7  C   UNL     1      -3.521   2.043   0.000  1.00  0.00     0.047 A 
ATOM      8  C   UNL     1      -4.937  -0.135   0.000  1.00  0.00     0.093 A 
ATOM      9  C   UNL     1      -4.858   1.363   0.000  1.00  0.00     0.119 A 
BRANCH   6  10
ATOM     10  O   UNL     1      -3.758  -2.451   0.000  1.00  0.00    -0.507 OA
ATOM     11  H   UNL     1       0.000   0.000   0.000  1.00  0.00     0.293 HD
ENDBRANCH   6  10
BRANCH   9  12
ATOM     12  O   UNL     1      -6.116   2.180   0.000  1.00  0.00    -0.508 OA
ATOM     13  H   UNL     1       0.000   0.000   0.000  1.00  0.00     0.293 HD
ENDBRANCH   9  12
ENDBRANCH   2   4
ENDBRANCH   1   2
BRANCH   1  14
ATOM     14  C   UNL     1       1.510  -1.226   0.000  1.00  0.00     0.012 C 
BRANCH  14  15
ATOM     15  C   UNL     1       2.847  -0.545   0.000  1.00  0.00    -0.025 A 
ATOM     16  C   UNL     1       4.105  -1.362   0.000  1.00  0.00     0.012 A 
ATOM     17  C   UNL     1       2.926   0.953   0.000  1.00  0.00     0.012 A 
ATOM     18  C   UNL     1       5.441  -0.682   0.000  1.00  0.00     0.047 A 
ATOM     19  C   UNL     1       4.262   1.633   0.000  1.00  0.00     0.047 A 
ATOM     20  C   UNL     1       5.520   0.816   0.000  1.00  0.00     0.115 A 
BRANCH  20  21
ATOM     21  O   UNL     1       6.857   1.497   0.000  1.00  0.00    -0.508 OA
ATOM     22  H   UNL     1       0.000   0.000   0.000  1.00  0.00     0.293 HD
ENDBRANCH  20  21
ENDBRANCH  14  15
ENDBRANCH   1  14
TORSDOF 7
