REMARK SMILES COC(=O)c1cc2c(c(OC(C)=O)c1)OC(C)(C)C=C2
REMARK SMILES IDX 5 1 6 2 7 3 8 4 15 5 16 6 17 7 18 8 19 9 20 10 9 11 14 12
REMARK SMILES IDX 3 13 4 14 2 15 1 16 10 17 11 18 12 19 13 20
REMARK H PARENT
ROOT
ATOM      1  C   UNL     1      -1.825   0.636   0.000  1.00  0.00     0.064 A 
ATOM      2  C   UNL     1      -0.831   1.760   0.000  1.00  0.00     0.028 A 
ATOM      3  C   UNL     1       0.639   1.461   0.000  1.00  0.00     0.021 A 
ATOM      4  C   UNL     1       1.115   0.038   0.000  1.00  0.00     0.170 A 
ATOM      5  O   UNL     1       2.585  -0.261   0.000  1.00  0.00    -0.479 OA
ATOM      6  C   UNL     1       3.579   0.862   0.000  1.00  0.00     0.122 C 
ATOM      7  C   UNL     1       4.897   1.578   0.000  1.00  0.00     0.061 C 
ATOM      8  C   UNL     1       4.513  -0.312   0.000  1.00  0.00     0.061 C 
ATOM      9  C   UNL     1       3.103   2.285   0.000  1.00  0.00     0.021 C 
ATOM     10  C   UNL     1       1.633   2.584   0.000  1.00  0.00     0.012 C 
ATOM     11  C   UNL     1       0.121  -1.085   0.000  1.00  0.00     0.174 A 
ATOM     12  C   UNL     1      -1.349  -0.786   0.000  1.00  0.00     0.067 A 
ENDROOT
BRANCH   1  13
ATOM     13  C   UNL     1      -3.295   0.936   0.000  1.00  0.00     0.338 C 
ATOM     14  O   UNL     1      -4.288  -0.188   0.000  1.00  0.00    -0.246 OA
BRANCH  13  15
ATOM     15  O   UNL     1      -3.770   2.358   0.000  1.00  0.00    -0.465 OA
ATOM     16  C   UNL     1      -5.240   2.657   0.000  1.00  0.00     0.282 C 
ENDBRANCH  13  15
ENDBRANCH   1  13
BRANCH  11  17
ATOM     17  O   UNL     1       0.597  -2.508   0.000  1.00  0.00    -0.423 OA
BRANCH  17  18
ATOM     18  C   UNL     1      -0.397  -3.631   0.000  1.00  0.00     0.308 C 
ATOM     19  C   UNL     1       0.079  -5.054   0.000  1.00  0.00     0.139 C 
ATOM     20  O   UNL     1      -1.867  -3.332   0.000  1.00  0.00    -0.252 OA
ENDBRANCH  17  18
ENDBRANCH  11  17
TORSDOF 4
