REMARK SMILES CC(C)=CCc1cc(CCC(=O)c2c(O)cc3c(c2O)CCC(C)(C)O3)ccc1O
REMARK SMILES IDX 9 1 8 2 6 3 7 4 29 5 28 6 27 7 5 8 4 9 2 10 1 11 3 12 30 13
REMARK SMILES IDX 10 15 11 16 12 17 13 18 14 19 19 20 16 21 18 22 17 23 21 24
REMARK SMILES IDX 26 25 22 26 23 27 24 28 25 29 15 30 20 32
REMARK H PARENT 30 14 15 31 20 33
ROOT
ATOM      1  C   UNL     1      -2.030  -2.709   0.000  1.00  0.00     0.044 C 
ENDROOT
BRANCH   1   2
ATOM      2  C   UNL     1      -3.337  -1.973   0.000  1.00  0.00    -0.047 A 
ATOM      3  C   UNL     1      -4.659   0.264   0.000  1.00  0.00    -0.002 A 
ATOM      4  C   UNL     1      -3.353  -0.473   0.000  1.00  0.00     0.011 A 
ATOM      5  C   UNL     1      -5.950  -0.500   0.000  1.00  0.00     0.119 A 
ATOM      6  C   UNL     1      -5.935  -2.000   0.000  1.00  0.00     0.047 A 
ATOM      7  C   UNL     1      -4.628  -2.736   0.000  1.00  0.00     0.007 A 
BRANCH   3   8
ATOM      8  C   UNL     1      -4.675   1.764   0.000  1.00  0.00     0.066 C 
BRANCH   8   9
ATOM      9  C   UNL     1      -3.383   2.527   0.000  1.00  0.00    -0.023 C 
BRANCH   9  10
ATOM     10  C   UNL     1      -3.399   4.027   0.000  1.00  0.00    -0.080 C 
ATOM     11  C   UNL     1      -2.108   4.790   0.000  1.00  0.00     0.039 C 
ATOM     12  C   UNL     1      -4.705   4.763   0.000  1.00  0.00     0.039 C 
ENDBRANCH   9  10
ENDBRANCH   8   9
ENDBRANCH   3   8
BRANCH   5  13
ATOM     13  O   UNL     1      -7.257   0.237   0.000  1.00  0.00    -0.508 OA
ATOM     14  H   UNL     1       0.000   0.000   0.000  1.00  0.00     0.293 HD
ENDBRANCH   5  13
ENDBRANCH   1   2
BRANCH   1  15
ATOM     15  C   UNL     1      -0.739  -1.946   0.000  1.00  0.00     0.086 C 
BRANCH  15  16
ATOM     16  C   UNL     1       0.568  -2.683   0.000  1.00  0.00     0.170 C 
ATOM     17  O   UNL     1       0.583  -4.183   0.000  1.00  0.00    -0.294 OA
BRANCH  16  18
ATOM     18  C   UNL     1       1.859  -1.919   0.000  1.00  0.00     0.102 A 
ATOM     19  C   UNL     1       3.165  -2.656   0.000  1.00  0.00     0.133 A 
ATOM     20  C   UNL     1       1.843  -0.419   0.000  1.00  0.00     0.137 A 
ATOM     21  C   UNL     1       4.457  -1.893   0.000  1.00  0.00     0.094 A 
ATOM     22  C   UNL     1       3.135   0.344   0.000  1.00  0.00     0.037 A 
ATOM     23  C   UNL     1       4.441  -0.393   0.000  1.00  0.00     0.130 A 
ATOM     24  C   UNL     1       3.119   1.844   0.000  1.00  0.00     0.047 C 
ATOM     25  O   UNL     1       5.732   0.371   0.000  1.00  0.00    -0.487 OA
ATOM     26  C   UNL     1       4.410   2.607   0.000  1.00  0.00     0.053 C 
ATOM     27  C   UNL     1       5.717   1.871   0.000  1.00  0.00     0.104 C 
ATOM     28  C   UNL     1       6.216   3.285   0.000  1.00  0.00     0.056 C 
ATOM     29  C   UNL     1       7.197   1.625   0.000  1.00  0.00     0.056 C 
BRANCH  19  30
ATOM     30  O   UNL     1       3.181  -4.156   0.000  1.00  0.00    -0.507 OA
ATOM     31  H   UNL     1       0.000   0.000   0.000  1.00  0.00     0.293 HD
ENDBRANCH  19  30
BRANCH  20  32
ATOM     32  O   UNL     1       0.537   0.317   0.000  1.00  0.00    -0.507 OA
ATOM     33  H   UNL     1       0.000   0.000   0.000  1.00  0.00     0.293 HD
ENDBRANCH  20  32
ENDBRANCH  16  18
ENDBRANCH  15  16
ENDBRANCH   1  15
TORSDOF 10
