REMARK SMILES COc1cc(-c2oc3cc(O)cc(O)c3c(=O)c2OC)ccc1O
REMARK SMILES IDX 6 1 18 2 16 3 17 4 15 5 13 6 12 7 10 8 9 9 8 10 7 11 5 12
REMARK SMILES IDX 3 13 4 14 23 15 22 16 21 17 2 18 1 19 24 20 19 22 20 23
REMARK SMILES IDX 14 24 11 26
REMARK H PARENT 24 21 14 25 11 27
ROOT
ATOM      1  C   UNL     1      -0.262  -0.315   0.000  1.00  0.00     0.180 A 
ATOM      2  C   UNL     1       0.439  -1.641   0.000  1.00  0.00     0.210 A 
ATOM      3  C   UNL     1       1.938  -1.697   0.000  1.00  0.00     0.239 A 
ATOM      4  O   UNL     1       2.639  -3.024   0.000  1.00  0.00    -0.285 OA
ATOM      5  C   UNL     1       2.736  -0.427   0.000  1.00  0.00     0.111 A 
ATOM      6  C   UNL     1       4.235  -0.483   0.000  1.00  0.00     0.134 A 
ATOM      7  C   UNL     1       5.033   0.787   0.000  1.00  0.00     0.093 A 
ATOM      8  C   UNL     1       4.332   2.113   0.000  1.00  0.00     0.123 A 
ATOM      9  C   UNL     1       2.833   2.169   0.000  1.00  0.00     0.094 A 
ATOM     10  C   UNL     1       2.035   0.899   0.000  1.00  0.00     0.146 A 
ATOM     11  O   UNL     1       0.536   0.955   0.000  1.00  0.00    -0.452 OA
ENDROOT
BRANCH   1  12
ATOM     12  C   UNL     1      -1.761  -0.259   0.000  1.00  0.00     0.025 A 
ATOM     13  C   UNL     1      -3.961   1.123   0.000  1.00  0.00     0.161 A 
ATOM     14  C   UNL     1      -2.462   1.067   0.000  1.00  0.00     0.062 A 
ATOM     15  C   UNL     1      -4.759  -0.147   0.000  1.00  0.00     0.157 A 
ATOM     16  C   UNL     1      -4.058  -1.473   0.000  1.00  0.00     0.051 A 
ATOM     17  C   UNL     1      -2.559  -1.529   0.000  1.00  0.00     0.016 A 
BRANCH  13  18
ATOM     18  O   UNL     1      -4.662   2.449   0.000  1.00  0.00    -0.493 OA
ATOM     19  C   UNL     1      -3.864   3.719   0.000  1.00  0.00     0.278 C 
ENDBRANCH  13  18
BRANCH  15  20
ATOM     20  O   UNL     1      -6.258  -0.091   0.000  1.00  0.00    -0.504 OA
ATOM     21  H   UNL     1       0.000   0.000   0.000  1.00  0.00     0.293 HD
ENDBRANCH  15  20
ENDBRANCH   1  12
BRANCH   2  22
ATOM     22  O   UNL     1      -0.359  -2.911   0.000  1.00  0.00    -0.490 OA
ATOM     23  C   UNL     1      -1.858  -2.855   0.000  1.00  0.00     0.278 C 
ENDBRANCH   2  22
BRANCH   6  24
ATOM     24  O   UNL     1       4.936  -1.810   0.000  1.00  0.00    -0.507 OA
ATOM     25  H   UNL     1       0.000   0.000   0.000  1.00  0.00     0.293 HD
ENDBRANCH   6  24
BRANCH   8  26
ATOM     26  O   UNL     1       5.130   3.383   0.000  1.00  0.00    -0.508 OA
ATOM     27  H   UNL     1       0.000   0.000   0.000  1.00  0.00     0.293 HD
ENDBRANCH   8  26
TORSDOF 6
