REMARK SMILES COc1cc([C@H]2CC(=O)c3c(OC(C)=O)c(C)c(OC(C)=O)c(C)c3O2)ccc1OC(C)=O
REMARK SMILES IDX 6 1 7 2 8 3 9 4 10 5 11 6 16 7 17 8 18 9 23 10 24 11 25 12
REMARK SMILES IDX 26 13 5 14 3 15 4 16 29 17 28 18 27 19 2 20 1 21 30 22 31 23
REMARK SMILES IDX 32 24 33 25 12 26 13 27 14 28 15 29 19 30 20 31 21 32 22 33
REMARK H PARENT
ROOT
ATOM      1  C   UNL     1      -1.259  -0.456   0.000  1.00  0.00     0.211 C 
ATOM      2  C   UNL     1      -0.701  -1.848   0.000  1.00  0.00     0.131 C 
ATOM      3  C   UNL     1       0.783  -2.061   0.000  1.00  0.00     0.174 C 
ATOM      4  O   UNL     1       1.341  -3.453   0.000  1.00  0.00    -0.294 OA
ATOM      5  C   UNL     1       1.710  -0.882   0.000  1.00  0.00     0.103 A 
ATOM      6  C   UNL     1       3.195  -1.095   0.000  1.00  0.00     0.152 A 
ATOM      7  C   UNL     1       4.122   0.085   0.000  1.00  0.00     0.036 A 
ATOM      8  C   UNL     1       5.607  -0.128   0.000  1.00  0.00     0.052 C 
ATOM      9  C   UNL     1       3.564   1.477   0.000  1.00  0.00     0.144 A 
ATOM     10  C   UNL     1       2.079   1.690   0.000  1.00  0.00     0.035 A 
ATOM     11  C   UNL     1       1.521   3.083   0.000  1.00  0.00     0.052 C 
ATOM     12  C   UNL     1       1.152   0.511   0.000  1.00  0.00     0.141 A 
ATOM     13  O   UNL     1      -0.332   0.724   0.000  1.00  0.00    -0.484 OA
ENDROOT
BRANCH   1  14
ATOM     14  C   UNL     1      -2.744  -0.243   0.000  1.00  0.00    -0.003 A 
ATOM     15  C   UNL     1      -4.787   1.363   0.000  1.00  0.00     0.161 A 
ATOM     16  C   UNL     1      -3.302   1.150   0.000  1.00  0.00     0.058 A 
ATOM     17  C   UNL     1      -5.714   0.183   0.000  1.00  0.00     0.172 A 
ATOM     18  C   UNL     1      -5.156  -1.209   0.000  1.00  0.00     0.052 A 
ATOM     19  C   UNL     1      -3.671  -1.422   0.000  1.00  0.00     0.012 A 
BRANCH  15  20
ATOM     20  O   UNL     1      -5.345   2.755   0.000  1.00  0.00    -0.493 OA
ATOM     21  C   UNL     1      -4.418   3.934   0.000  1.00  0.00     0.278 C 
ENDBRANCH  15  20
BRANCH  17  22
ATOM     22  O   UNL     1      -7.199   0.396   0.000  1.00  0.00    -0.423 OA
BRANCH  22  23
ATOM     23  C   UNL     1      -8.125  -0.783   0.000  1.00  0.00     0.308 C 
ATOM     24  C   UNL     1      -9.610  -0.570   0.000  1.00  0.00     0.139 C 
ATOM     25  O   UNL     1      -7.567  -2.175   0.000  1.00  0.00    -0.252 OA
ENDBRANCH  22  23
ENDBRANCH  17  22
ENDBRANCH   1  14
BRANCH   6  26
ATOM     26  O   UNL     1       3.753  -2.487   0.000  1.00  0.00    -0.425 OA
BRANCH  26  27
ATOM     27  C   UNL     1       5.238  -2.700   0.000  1.00  0.00     0.308 C 
ATOM     28  C   UNL     1       5.796  -4.092   0.000  1.00  0.00     0.139 C 
ATOM     29  O   UNL     1       6.165  -1.521   0.000  1.00  0.00    -0.252 OA
ENDBRANCH  26  27
ENDBRANCH   6  26
BRANCH   9  30
ATOM     30  O   UNL     1       4.491   2.656   0.000  1.00  0.00    -0.426 OA
BRANCH  30  31
ATOM     31  C   UNL     1       5.976   2.443   0.000  1.00  0.00     0.308 C 
ATOM     32  C   UNL     1       6.902   3.623   0.000  1.00  0.00     0.139 C 
ATOM     33  O   UNL     1       6.534   1.051   0.000  1.00  0.00    -0.252 OA
ENDBRANCH  30  31
ENDBRANCH   9  30
TORSDOF 8
