REMARK SMILES COc1c(O)ccc2c3c(c(=O)n(C)c12)C=CC(C)(C)O3
REMARK SMILES IDX 3 1 4 2 6 3 7 4 8 5 15 6 13 7 14 8 11 9 12 10 10 11 9 12
REMARK SMILES IDX 21 13 18 14 19 15 20 16 17 17 16 18 2 19 1 20 5 21
REMARK H PARENT 5 22
ROOT
ATOM      1  C   UNL     1      -2.799  -0.424   0.000  1.00  0.00     0.185 A 
ATOM      2  C   UNL     1      -3.043  -1.904   0.000  1.00  0.00     0.159 A 
ATOM      3  C   UNL     1      -1.884  -2.855   0.000  1.00  0.00     0.051 A 
ATOM      4  C   UNL     1      -0.480  -2.327   0.000  1.00  0.00     0.018 A 
ATOM      5  C   UNL     1      -0.236  -0.847   0.000  1.00  0.00     0.045 A 
ATOM      6  C   UNL     1      -1.395   0.105   0.000  1.00  0.00     0.101 A 
ATOM      7  N   UNL     1      -1.151   1.585   0.000  1.00  0.00    -0.307 N 
ATOM      8  C   UNL     1      -2.311   2.536   0.000  1.00  0.00     0.154 C 
ATOM      9  C   UNL     1       0.253   2.113   0.000  1.00  0.00     0.261 A 
ATOM     10  O   UNL     1       0.497   3.593   0.000  1.00  0.00    -0.269 OA
ATOM     11  C   UNL     1       1.412   1.162   0.000  1.00  0.00     0.082 A 
ATOM     12  C   UNL     1       1.168  -0.318   0.000  1.00  0.00     0.142 A 
ATOM     13  O   UNL     1       2.328  -1.270   0.000  1.00  0.00    -0.482 OA
ATOM     14  C   UNL     1       3.731  -0.742   0.000  1.00  0.00     0.122 C 
ATOM     15  C   UNL     1       5.231  -0.725   0.000  1.00  0.00     0.061 C 
ATOM     16  C   UNL     1       4.008  -2.216   0.000  1.00  0.00     0.061 C 
ATOM     17  C   UNL     1       3.976   0.739   0.000  1.00  0.00     0.021 C 
ATOM     18  C   UNL     1       2.816   1.690   0.000  1.00  0.00     0.017 C 
ENDROOT
BRANCH   1  19
ATOM     19  O   UNL     1      -3.959   0.528   0.000  1.00  0.00    -0.491 OA
ATOM     20  C   UNL     1      -3.715   2.008   0.000  1.00  0.00     0.278 C 
ENDBRANCH   1  19
BRANCH   2  21
ATOM     21  O   UNL     1      -4.447  -2.432   0.000  1.00  0.00    -0.504 OA
ATOM     22  H   UNL     1       0.000   0.000   0.000  1.00  0.00     0.293 HD
ENDBRANCH   2  21
TORSDOF 2
