REMARK SMILES COc1cc(-c2cc(=O)c3c(OC)c(OC)c(OC)cc3o2)cc(OC)c1OC
REMARK SMILES IDX 6 1 7 2 8 3 9 4 10 5 11 6 14 7 17 8 20 9 21 10 22 11 5 12
REMARK SMILES IDX 3 13 4 14 27 15 24 16 23 17 2 18 1 19 28 20 29 21 25 22
REMARK SMILES IDX 26 23 12 24 13 25 18 26 19 27 15 28 16 29
REMARK H PARENT
ROOT
ATOM      1  C   UNL     1      -0.658  -0.391   0.000  1.00  0.00     0.138 A 
ATOM      2  C   UNL     1      -0.026  -1.752   0.000  1.00  0.00     0.100 A 
ATOM      3  C   UNL     1       1.468  -1.885   0.000  1.00  0.00     0.197 A 
ATOM      4  O   UNL     1       2.099  -3.245   0.000  1.00  0.00    -0.289 OA
ATOM      5  C   UNL     1       2.330  -0.657   0.000  1.00  0.00     0.111 A 
ATOM      6  C   UNL     1       3.824  -0.791   0.000  1.00  0.00     0.179 A 
ATOM      7  C   UNL     1       4.687   0.436   0.000  1.00  0.00     0.204 A 
ATOM      8  C   UNL     1       4.055   1.797   0.000  1.00  0.00     0.168 A 
ATOM      9  C   UNL     1       2.561   1.930   0.000  1.00  0.00     0.098 A 
ATOM     10  C   UNL     1       1.698   0.703   0.000  1.00  0.00     0.146 A 
ATOM     11  O   UNL     1       0.204   0.836   0.000  1.00  0.00    -0.456 OA
ENDROOT
BRANCH   1  12
ATOM     12  C   UNL     1      -2.152  -0.258   0.000  1.00  0.00     0.025 A 
ATOM     13  C   UNL     1      -4.278   1.236   0.000  1.00  0.00     0.165 A 
ATOM     14  C   UNL     1      -2.784   1.103   0.000  1.00  0.00     0.062 A 
ATOM     15  C   UNL     1      -5.140   0.009   0.000  1.00  0.00     0.203 A 
ATOM     16  C   UNL     1      -4.509  -1.352   0.000  1.00  0.00     0.165 A 
ATOM     17  C   UNL     1      -3.014  -1.485   0.000  1.00  0.00     0.062 A 
BRANCH  13  18
ATOM     18  O   UNL     1      -4.910   2.596   0.000  1.00  0.00    -0.493 OA
ATOM     19  C   UNL     1      -4.047   3.824   0.000  1.00  0.00     0.278 C 
ENDBRANCH  13  18
BRANCH  15  20
ATOM     20  O   UNL     1      -6.634   0.142   0.000  1.00  0.00    -0.490 OA
ATOM     21  C   UNL     1      -7.266   1.502   0.000  1.00  0.00     0.278 C 
ENDBRANCH  15  20
BRANCH  16  22
ATOM     22  O   UNL     1      -5.371  -2.579   0.000  1.00  0.00    -0.493 OA
ATOM     23  C   UNL     1      -6.865  -2.446   0.000  1.00  0.00     0.278 C 
ENDBRANCH  16  22
ENDBRANCH   1  12
BRANCH   6  24
ATOM     24  O   UNL     1       4.456  -2.151   0.000  1.00  0.00    -0.492 OA
ATOM     25  C   UNL     1       5.950  -2.284   0.000  1.00  0.00     0.278 C 
ENDBRANCH   6  24
BRANCH   8  26
ATOM     26  O   UNL     1       4.917   3.024   0.000  1.00  0.00    -0.493 OA
ATOM     27  C   UNL     1       6.412   2.891   0.000  1.00  0.00     0.278 C 
ENDBRANCH   8  26
BRANCH   7  28
ATOM     28  O   UNL     1       6.181   0.303   0.000  1.00  0.00    -0.490 OA
ATOM     29  C   UNL     1       6.812  -1.057   0.000  1.00  0.00     0.278 C 
ENDBRANCH   7  28
TORSDOF 7
