REMARK SMILES COc1cc2c(cc1OC)[C@@H]1C(=O)c3ccc4c(c3O[C@@H]1CO2)C=CC(C)(C)O4
REMARK SMILES IDX 3 1 4 2 5 3 6 4 7 5 8 6 11 7 12 8 13 9 14 10 15 11 16 12
REMARK SMILES IDX 17 13 29 14 26 15 27 16 28 17 25 18 24 19 18 20 19 21 20 22
REMARK SMILES IDX 21 23 22 24 23 25 2 26 1 27 9 28 10 29
REMARK H PARENT
ROOT
ATOM      1  C   UNL     1      -5.432   0.236   0.000  1.00  0.00     0.164 A 
ATOM      2  C   UNL     1      -4.679   1.534   0.000  1.00  0.00     0.097 A 
ATOM      3  C   UNL     1      -3.179   1.530   0.000  1.00  0.00     0.127 A 
ATOM      4  C   UNL     1      -2.432   0.229   0.000  1.00  0.00     0.013 A 
ATOM      5  C   UNL     1      -3.185  -1.068   0.000  1.00  0.00     0.059 A 
ATOM      6  C   UNL     1      -4.685  -1.065   0.000  1.00  0.00     0.161 A 
ATOM      7  C   UNL     1      -0.932   0.226   0.000  1.00  0.00     0.139 C 
ATOM      8  C   UNL     1      -0.185  -1.075   0.000  1.00  0.00     0.178 C 
ATOM      9  O   UNL     1      -0.938  -2.372   0.000  1.00  0.00    -0.293 OA
ATOM     10  C   UNL     1       1.315  -1.078   0.000  1.00  0.00     0.061 A 
ATOM     11  C   UNL     1       2.062  -2.379   0.000  1.00  0.00     0.019 A 
ATOM     12  C   UNL     1       3.562  -2.382   0.000  1.00  0.00     0.048 A 
ATOM     13  C   UNL     1       4.315  -1.085   0.000  1.00  0.00     0.131 A 
ATOM     14  O   UNL     1       5.815  -1.088   0.000  1.00  0.00    -0.483 OA
ATOM     15  C   UNL     1       6.568   0.209   0.000  1.00  0.00     0.122 C 
ATOM     16  C   UNL     1       7.719   1.171   0.000  1.00  0.00     0.061 C 
ATOM     17  C   UNL     1       7.715  -0.758   0.000  1.00  0.00     0.061 C 
ATOM     18  C   UNL     1       5.821   1.510   0.000  1.00  0.00     0.021 C 
ATOM     19  C   UNL     1       4.321   1.513   0.000  1.00  0.00     0.015 C 
ATOM     20  C   UNL     1       3.568   0.216   0.000  1.00  0.00     0.059 A 
ATOM     21  C   UNL     1       2.068   0.219   0.000  1.00  0.00     0.141 A 
ATOM     22  O   UNL     1       1.321   1.520   0.000  1.00  0.00    -0.484 OA
ATOM     23  C   UNL     1      -0.179   1.523   0.000  1.00  0.00     0.226 C 
ATOM     24  C   UNL     1      -0.926   2.824   0.000  1.00  0.00     0.275 C 
ATOM     25  O   UNL     1      -2.426   2.828   0.000  1.00  0.00    -0.489 OA
ENDROOT
BRANCH   1  26
ATOM     26  O   UNL     1      -6.932   0.240   0.000  1.00  0.00    -0.493 OA
ATOM     27  C   UNL     1      -7.679   1.540   0.000  1.00  0.00     0.278 C 
ENDBRANCH   1  26
BRANCH   6  28
ATOM     28  O   UNL     1      -5.438  -2.362   0.000  1.00  0.00    -0.493 OA
ATOM     29  C   UNL     1      -6.938  -2.358   0.000  1.00  0.00     0.278 C 
ENDBRANCH   6  28
TORSDOF 2
