REMARK SMILES C=C/C(C)=C/C[C@]1(C)[C@H]2C[C@@H](OC(C)=O)C=C3[C@H](OC(C)=O)O[C@@H](OC(C)=O)[C@@]32[C@H](OC(=O)c2ccc(O)cc2)C[C@@H]1C
REMARK SMILES IDX 7 1 8 2 9 3 10 4 11 5 16 6 17 7 18 8 23 9 24 10 29 11 30 12
REMARK SMILES IDX 41 13 42 14 43 15 6 16 5 17 3 18 4 19 2 20 1 21 12 22 13 23
REMARK SMILES IDX 14 24 15 25 25 26 26 27 27 28 28 29 31 30 32 31 33 32 34 33
REMARK SMILES IDX 35 34 40 35 36 36 39 37 37 38 38 39 19 41 20 42 21 43 22 44
REMARK H PARENT 38 40
ROOT
ATOM      1  C   UNL     1       1.786  -1.227   0.000  1.00  0.00    -0.022 C 
ATOM      2  C   UNL     1       3.295  -2.667   0.000  1.00  0.00     0.012 C 
ATOM      3  C   UNL     1       2.098   0.035   0.000  1.00  0.00     0.020 C 
ATOM      4  C   UNL     1       3.179   1.075   0.000  1.00  0.00     0.055 C 
ATOM      5  C   UNL     1       2.819   2.531   0.000  1.00  0.00     0.200 C 
ATOM      6  C   UNL     1       1.377   2.947   0.000  1.00  0.00     0.024 C 
ATOM      7  C   UNL     1       0.296   1.907   0.000  1.00  0.00     0.014 C 
ATOM      8  C   UNL     1      -1.200   2.014   0.000  1.00  0.00     0.343 C 
ATOM      9  O   UNL     1      -1.764   0.624   0.000  1.00  0.00    -0.298 OA
ATOM     10  C   UNL     1      -0.617  -0.342   0.000  1.00  0.00     0.328 C 
ATOM     11  C   UNL     1       0.657   0.451   0.000  1.00  0.00     0.100 C 
ATOM     12  C   UNL     1       0.248  -0.783   0.000  1.00  0.00     0.194 C 
ATOM     13  C   UNL     1       0.440  -1.560   0.000  1.00  0.00     0.050 C 
ATOM     14  C   UNL     1       1.209  -1.782   0.000  1.00  0.00    -0.004 C 
ATOM     15  C   UNL     1       1.737  -3.918   0.000  1.00  0.00     0.008 C 
ENDROOT
BRANCH   1  16
ATOM     16  C   UNL     1       3.829  -0.814   0.000  1.00  0.00     0.035 C 
BRANCH  16  17
ATOM     17  C   UNL     1       5.041  -1.698   0.000  1.00  0.00    -0.023 C 
BRANCH  17  18
ATOM     18  C   UNL     1       6.413  -1.090   0.000  1.00  0.00    -0.056 C 
ATOM     19  C   UNL     1       6.572   0.401   0.000  1.00  0.00     0.044 C 
BRANCH  18  20
ATOM     20  C   UNL     1       7.625  -1.974   0.000  1.00  0.00    -0.005 C 
ATOM     21  C   UNL     1       7.465  -3.466   0.000  1.00  0.00     0.009 C 
ENDBRANCH  18  20
ENDBRANCH  17  18
ENDBRANCH  16  17
ENDBRANCH   1  16
BRANCH   5  22
ATOM     22  O   UNL     1       3.900   3.571   0.000  1.00  0.00    -0.458 OA
BRANCH  22  23
ATOM     23  C   UNL     1       5.341   3.155   0.000  1.00  0.00     0.303 C 
ATOM     24  C   UNL     1       6.422   4.194   0.000  1.00  0.00     0.139 C 
ATOM     25  O   UNL     1       5.701   1.698   0.000  1.00  0.00    -0.253 OA
ENDBRANCH  22  23
ENDBRANCH   5  22
BRANCH  10  26
ATOM     26  O   UNL     1      -0.724  -1.838   0.000  1.00  0.00    -0.435 OA
BRANCH  26  27
ATOM     27  C   UNL     1      -2.074  -2.493   0.000  1.00  0.00     0.304 C 
ATOM     28  C   UNL     1      -2.181  -3.989   0.000  1.00  0.00     0.139 C 
ATOM     29  O   UNL     1      -3.482  -1.978   0.000  1.00  0.00    -0.253 OA
ENDBRANCH  26  27
ENDBRANCH  10  26
BRANCH  12  30
ATOM     30  O   UNL     1      -1.865  -0.173   0.000  1.00  0.00    -0.458 OA
BRANCH  30  31
ATOM     31  C   UNL     1      -2.946  -1.213   0.000  1.00  0.00     0.338 C 
ATOM     32  O   UNL     1      -2.949  -2.713   0.000  1.00  0.00    -0.246 OA
BRANCH  31  33
ATOM     33  C   UNL     1      -4.387  -0.797   0.000  1.00  0.00     0.060 A 
ATOM     34  C   UNL     1      -4.748   0.659   0.000  1.00  0.00     0.019 A 
ATOM     35  C   UNL     1      -5.468  -1.837   0.000  1.00  0.00     0.019 A 
ATOM     36  C   UNL     1      -6.189   1.075   0.000  1.00  0.00     0.047 A 
ATOM     37  C   UNL     1      -6.910  -1.421   0.000  1.00  0.00     0.047 A 
ATOM     38  C   UNL     1      -7.270   0.035   0.000  1.00  0.00     0.115 A 
BRANCH  38  39
ATOM     39  O   UNL     1      -8.711   0.451   0.000  1.00  0.00    -0.508 OA
ATOM     40  H   UNL     1       0.000   0.000   0.000  1.00  0.00     0.293 HD
ENDBRANCH  38  39
ENDBRANCH  31  33
ENDBRANCH  30  31
ENDBRANCH  12  30
BRANCH   8  41
ATOM     41  O   UNL     1      -1.992   3.288   0.000  1.00  0.00    -0.432 OA
BRANCH  41  42
ATOM     42  C   UNL     1      -3.491   3.238   0.000  1.00  0.00     0.305 C 
ATOM     43  C   UNL     1      -4.284   4.512   0.000  1.00  0.00     0.139 C 
ATOM     44  O   UNL     1      -4.198   1.915   0.000  1.00  0.00    -0.253 OA
ENDBRANCH  41  42
ENDBRANCH   8  41
TORSDOF 14
