REMARK SMILES C=CCC1=C[C@]2(OC)[C@H](C)[C@@H](c3cc(OC)c(OC)c(OC)c3)O[C@]2(O)CC1=O
REMARK SMILES IDX 4 1 5 2 6 3 9 4 10 5 11 6 24 7 25 8 27 9 28 10 29 11 3 12
REMARK SMILES IDX 2 13 1 14 7 15 8 16 26 17 12 19 13 20 23 21 14 22 20 23
REMARK SMILES IDX 17 24 15 25 16 26 21 27 22 28 18 29 19 30
REMARK H PARENT 26 18
ROOT
ATOM      1  C   UNL     1       4.550   0.257   0.000  1.00  0.00    -0.002 C 
ATOM      2  C   UNL     1       3.347  -0.639   0.000  1.00  0.00     0.021 C 
ATOM      3  C   UNL     1       1.970  -0.045   0.000  1.00  0.00     0.146 C 
ATOM      4  C   UNL     1       0.606  -0.671   0.000  1.00  0.00     0.061 C 
ATOM      5  C   UNL     1       0.312  -2.142   0.000  1.00  0.00     0.014 C 
ATOM      6  C   UNL     1      -0.410   0.431   0.000  1.00  0.00     0.158 C 
ATOM      7  O   UNL     1       0.324   1.739   0.000  1.00  0.00    -0.338 OA
ATOM      8  C   UNL     1       1.795   1.445   0.000  1.00  0.00     0.207 C 
ATOM      9  C   UNL     1       2.998   2.341   0.000  1.00  0.00     0.150 C 
ATOM     10  C   UNL     1       4.376   1.747   0.000  1.00  0.00     0.164 C 
ATOM     11  O   UNL     1       5.579   2.643   0.000  1.00  0.00    -0.294 OA
ENDROOT
BRANCH   1  12
ATOM     12  C   UNL     1       5.927  -0.337   0.000  1.00  0.00     0.065 C 
BRANCH  12  13
ATOM     13  C   UNL     1       6.102  -1.827   0.000  1.00  0.00    -0.030 C 
ATOM     14  C   UNL     1       7.479  -2.421   0.000  1.00  0.00     0.004 C 
ENDBRANCH  12  13
ENDBRANCH   1  12
BRANCH   3  15
ATOM     15  O   UNL     1       1.987  -1.545   0.000  1.00  0.00    -0.368 OA
ATOM     16  C   UNL     1       3.295  -2.280   0.000  1.00  0.00     0.196 C 
ENDBRANCH   3  15
BRANCH   8  17
ATOM     17  O   UNL     1       1.466   2.908   0.000  1.00  0.00    -0.363 OA
ATOM     18  H   UNL     1       0.000   0.000   0.000  1.00  0.00     0.214 HD
ENDBRANCH   8  17
BRANCH   6  19
ATOM     19  C   UNL     1      -1.900   0.257   0.000  1.00  0.00    -0.011 A 
ATOM     20  C   UNL     1      -2.796   1.460   0.000  1.00  0.00     0.057 A 
ATOM     21  C   UNL     1      -2.494  -1.120   0.000  1.00  0.00     0.057 A 
ATOM     22  C   UNL     1      -4.286   1.286   0.000  1.00  0.00     0.165 A 
ATOM     23  C   UNL     1      -3.984  -1.295   0.000  1.00  0.00     0.165 A 
ATOM     24  C   UNL     1      -4.880  -0.092   0.000  1.00  0.00     0.203 A 
BRANCH  22  25
ATOM     25  O   UNL     1      -5.182   2.489   0.000  1.00  0.00    -0.493 OA
ATOM     26  C   UNL     1      -4.588   3.866   0.000  1.00  0.00     0.278 C 
ENDBRANCH  22  25
BRANCH  23  27
ATOM     27  O   UNL     1      -4.578  -2.672   0.000  1.00  0.00    -0.493 OA
ATOM     28  C   UNL     1      -3.682  -3.875   0.000  1.00  0.00     0.278 C 
ENDBRANCH  23  27
BRANCH  24  29
ATOM     29  O   UNL     1      -6.370  -0.266   0.000  1.00  0.00    -0.490 OA
ATOM     30  C   UNL     1      -6.964  -1.643   0.000  1.00  0.00     0.278 C 
ENDBRANCH  24  29
ENDBRANCH   6  19
TORSDOF 8
