REMARK SMILES CC1=CC2=C(C(C)C)CC[C@@H](C)[C@@H]2CC1
REMARK SMILES IDX 1 1 2 2 3 3 4 4 5 5 9 6 10 7 11 8 12 9 13 10 14 11 15 12
REMARK SMILES IDX 6 13 7 14 8 15
REMARK H PARENT
ROOT
ATOM      1  C   UNL     1       3.000  -2.771   0.000  1.00  0.00     0.039 C 
ATOM      2  C   UNL     1       2.250  -1.472   0.000  1.00  0.00    -0.073 C 
ATOM      3  C   UNL     1       0.750  -1.472   0.000  1.00  0.00     0.003 C 
ATOM      4  C   UNL     1       0.000  -0.173   0.000  1.00  0.00    -0.045 C 
ATOM      5  C   UNL     1      -1.500  -0.173   0.000  1.00  0.00    -0.064 C 
ATOM      6  C   UNL     1      -2.250   1.126   0.000  1.00  0.00     0.032 C 
ATOM      7  C   UNL     1      -1.500   2.425   0.000  1.00  0.00     0.008 C 
ATOM      8  C   UNL     1       0.000   2.425   0.000  1.00  0.00    -0.006 C 
ATOM      9  C   UNL     1       0.750   3.724   0.000  1.00  0.00     0.008 C 
ATOM     10  C   UNL     1       0.750   1.126   0.000  1.00  0.00     0.022 C 
ATOM     11  C   UNL     1       2.250   1.126   0.000  1.00  0.00     0.013 C 
ATOM     12  C   UNL     1       3.000  -0.173   0.000  1.00  0.00     0.031 C 
ENDROOT
BRANCH   5  13
ATOM     13  C   UNL     1      -2.250  -1.472   0.000  1.00  0.00     0.009 C 
ATOM     14  C   UNL     1      -3.750  -1.472   0.000  1.00  0.00     0.012 C 
ATOM     15  C   UNL     1      -1.500  -2.771   0.000  1.00  0.00     0.012 C 
ENDBRANCH   5  13
TORSDOF 1
