REMARK SMILES CC(=O)CCOc1ccc(CCNC(=O)c2ccccc2)cc1
REMARK SMILES IDX 7 1 8 2 9 3 10 4 22 5 23 6 6 7 5 8 4 9 2 10 1 11 3 12 11 13
REMARK SMILES IDX 12 14 13 15 14 16 15 18 16 19 17 20 21 21 18 22 20 23 19 24
REMARK H PARENT 13 17
ROOT
ATOM      1  C   UNL     1      -3.514  -0.613   0.000  1.00  0.00     0.119 A 
ATOM      2  C   UNL     1      -3.228   0.860   0.000  1.00  0.00     0.047 A 
ATOM      3  C   UNL     1      -1.809   1.348   0.000  1.00  0.00     0.007 A 
ATOM      4  C   UNL     1      -0.677   0.364   0.000  1.00  0.00    -0.046 A 
ATOM      5  C   UNL     1      -0.963  -1.108   0.000  1.00  0.00     0.007 A 
ATOM      6  C   UNL     1      -2.382  -1.597   0.000  1.00  0.00     0.047 A 
ENDROOT
BRANCH   1   7
ATOM      7  O   UNL     1      -4.932  -1.101   0.000  1.00  0.00    -0.493 OA
BRANCH   7   8
ATOM      8  C   UNL     1      -6.064  -0.117   0.000  1.00  0.00     0.237 C 
BRANCH   8   9
ATOM      9  C   UNL     1      -7.482  -0.606   0.000  1.00  0.00     0.116 C 
BRANCH   9  10
ATOM     10  C   UNL     1      -8.614   0.379   0.000  1.00  0.00     0.133 C 
ATOM     11  C   UNL     1     -10.033  -0.110   0.000  1.00  0.00     0.088 C 
ATOM     12  O   UNL     1      -8.328   1.851   0.000  1.00  0.00    -0.300 OA
ENDBRANCH   9  10
ENDBRANCH   8   9
ENDBRANCH   7   8
ENDBRANCH   1   7
BRANCH   4  13
ATOM     13  C   UNL     1       0.741   0.853   0.000  1.00  0.00     0.057 C 
BRANCH  13  14
ATOM     14  C   UNL     1       1.873  -0.132   0.000  1.00  0.00     0.121 C 
BRANCH  14  15
ATOM     15  N   UNL     1       3.291   0.357   0.000  1.00  0.00    -0.352 N 
ATOM     16  C   UNL     1       4.423  -0.627   0.000  1.00  0.00     0.251 C 
ATOM     17  H   UNL     1       0.000   0.000   0.000  1.00  0.00     0.163 HD
ATOM     18  O   UNL     1       4.137  -2.099   0.000  1.00  0.00    -0.269 OA
BRANCH  16  19
ATOM     19  C   UNL     1       5.842  -0.139   0.000  1.00  0.00     0.039 A 
ATOM     20  C   UNL     1       6.974  -1.123   0.000  1.00  0.00     0.014 A 
ATOM     21  C   UNL     1       6.128   1.334   0.000  1.00  0.00     0.014 A 
ATOM     22  C   UNL     1       8.392  -0.634   0.000  1.00  0.00     0.001 A 
ATOM     23  C   UNL     1       7.546   1.822   0.000  1.00  0.00     0.001 A 
ATOM     24  C   UNL     1       8.678   0.838   0.000  1.00  0.00     0.000 A 
ENDBRANCH  16  19
ENDBRANCH  14  15
ENDBRANCH  13  14
ENDBRANCH   4  13
TORSDOF 8
