REMARK SMILES Cc1cc2cc(O)cc(O)c2c(=O)o1
REMARK SMILES IDX 1 1 2 2 3 3 4 4 5 5 6 6 8 7 9 8 11 9 12 10 13 11 14 12 7 13
REMARK SMILES IDX 10 15
REMARK H PARENT 7 14 10 16
ROOT
ATOM      1  C   UNL     1       3.897  -1.714   0.000  1.00  0.00     0.088 C 
ATOM      2  C   UNL     1       2.598  -0.964   0.000  1.00  0.00     0.105 A 
ATOM      3  C   UNL     1       1.299  -1.714   0.000  1.00  0.00     0.051 A 
ATOM      4  C   UNL     1      -0.000  -0.964   0.000  1.00  0.00    -0.000 A 
ATOM      5  C   UNL     1      -1.299  -1.714   0.000  1.00  0.00     0.055 A 
ATOM      6  C   UNL     1      -2.598  -0.964   0.000  1.00  0.00     0.119 A 
ATOM      7  C   UNL     1      -2.598   0.536   0.000  1.00  0.00     0.093 A 
ATOM      8  C   UNL     1      -1.299   1.286   0.000  1.00  0.00     0.134 A 
ATOM      9  C   UNL     1      -0.000   0.536   0.000  1.00  0.00     0.109 A 
ATOM     10  C   UNL     1       1.299   1.286   0.000  1.00  0.00     0.347 A 
ATOM     11  O   UNL     1       1.299   2.786   0.000  1.00  0.00    -0.246 OA
ATOM     12  O   UNL     1       2.598   0.536   0.000  1.00  0.00    -0.428 OA
ENDROOT
BRANCH   6  13
ATOM     13  O   UNL     1      -3.897  -1.714   0.000  1.00  0.00    -0.508 OA
ATOM     14  H   UNL     1       0.000   0.000   0.000  1.00  0.00     0.293 HD
ENDBRANCH   6  13
BRANCH   8  15
ATOM     15  O   UNL     1      -1.299   2.786   0.000  1.00  0.00    -0.507 OA
ATOM     16  H   UNL     1       0.000   0.000   0.000  1.00  0.00     0.293 HD
ENDBRANCH   8  15
TORSDOF 2
