REMARK SMILES COc1cc(O)c2c(=O)c(OC)c(-c3ccc(OC)c(O)c3O)oc2c1
REMARK SMILES IDX 3 1 4 2 5 3 7 4 8 5 9 6 10 7 13 8 24 9 25 10 26 11 2 12 1 13
REMARK SMILES IDX 6 14 14 16 15 17 22 18 16 19 20 20 17 21 23 22 21 24 18 26
REMARK SMILES IDX 19 27 11 28 12 29
REMARK H PARENT 6 15 23 23 21 25
ROOT
ATOM      1  C   UNL     1      -4.519  -1.460   0.000  1.00  0.00     0.126 A 
ATOM      2  C   UNL     1      -5.023  -0.047   0.000  1.00  0.00     0.093 A 
ATOM      3  C   UNL     1      -4.052   1.096   0.000  1.00  0.00     0.134 A 
ATOM      4  C   UNL     1      -2.576   0.826   0.000  1.00  0.00     0.111 A 
ATOM      5  C   UNL     1      -1.605   1.969   0.000  1.00  0.00     0.239 A 
ATOM      6  O   UNL     1      -2.109   3.382   0.000  1.00  0.00    -0.285 OA
ATOM      7  C   UNL     1      -0.129   1.700   0.000  1.00  0.00     0.211 A 
ATOM      8  C   UNL     1       0.375   0.287   0.000  1.00  0.00     0.184 A 
ATOM      9  O   UNL     1      -0.596  -0.856   0.000  1.00  0.00    -0.451 OA
ATOM     10  C   UNL     1      -2.072  -0.586   0.000  1.00  0.00     0.146 A 
ATOM     11  C   UNL     1      -3.043  -1.729   0.000  1.00  0.00     0.094 A 
ENDROOT
BRANCH   1  12
ATOM     12  O   UNL     1      -5.490  -2.603   0.000  1.00  0.00    -0.496 OA
ATOM     13  C   UNL     1      -6.966  -2.333   0.000  1.00  0.00     0.278 C 
ENDBRANCH   1  12
BRANCH   3  14
ATOM     14  O   UNL     1      -4.556   2.509   0.000  1.00  0.00    -0.507 OA
ATOM     15  H   UNL     1       0.000   0.000   0.000  1.00  0.00     0.293 HD
ENDBRANCH   3  14
BRANCH   8  16
ATOM     16  C   UNL     1       1.851   0.017   0.000  1.00  0.00     0.067 A 
ATOM     17  C   UNL     1       2.822   1.160   0.000  1.00  0.00     0.020 A 
ATOM     18  C   UNL     1       2.355  -1.395   0.000  1.00  0.00     0.172 A 
ATOM     19  C   UNL     1       4.298   0.891   0.000  1.00  0.00     0.051 A 
ATOM     20  C   UNL     1       3.830  -1.665   0.000  1.00  0.00     0.201 A 
ATOM     21  C   UNL     1       4.802  -0.522   0.000  1.00  0.00     0.164 A 
BRANCH  18  22
ATOM     22  O   UNL     1       1.383  -2.538   0.000  1.00  0.00    -0.504 OA
ATOM     23  H   UNL     1       0.000   0.000   0.000  1.00  0.00     0.293 HD
ENDBRANCH  18  22
BRANCH  20  24
ATOM     24  O   UNL     1       4.335  -3.078   0.000  1.00  0.00    -0.502 OA
ATOM     25  H   UNL     1       0.000   0.000   0.000  1.00  0.00     0.293 HD
ENDBRANCH  20  24
BRANCH  21  26
ATOM     26  O   UNL     1       6.277  -0.792   0.000  1.00  0.00    -0.493 OA
ATOM     27  C   UNL     1       7.249   0.351   0.000  1.00  0.00     0.278 C 
ENDBRANCH  21  26
ENDBRANCH   8  16
BRANCH   7  28
ATOM     28  O   UNL     1       0.842   2.843   0.000  1.00  0.00    -0.490 OA
ATOM     29  C   UNL     1       2.318   2.573   0.000  1.00  0.00     0.278 C 
ENDBRANCH   7  28
TORSDOF 7
