REMARK SMILES COC(=O)C1=CO[C@@H](OC(C)=O)[C@H]2[C@@H]1[C@H](OC(C)=O)C[C@@H]2C
REMARK SMILES IDX 5 1 6 2 7 3 8 4 13 5 14 6 15 7 20 8 21 9 22 10 3 11 4 12
REMARK SMILES IDX 2 13 1 14 16 15 17 16 18 17 19 18 9 19 10 20 11 21 12 22
REMARK H PARENT
ROOT
ATOM      1  C   UNL     1       0.331  -1.490   0.000  1.00  0.00     0.079 C 
ATOM      2  C   UNL     1      -0.980  -2.219   0.000  1.00  0.00     0.203 C 
ATOM      3  O   UNL     1      -2.267  -1.448   0.000  1.00  0.00    -0.461 OA
ATOM      4  C   UNL     1      -2.243   0.051   0.000  1.00  0.00     0.369 C 
ATOM      5  C   UNL     1      -0.932   0.781   0.000  1.00  0.00     0.086 C 
ATOM      6  C   UNL     1       0.355   0.010   0.000  1.00  0.00     0.082 C 
ATOM      7  C   UNL     1       1.485   0.996   0.000  1.00  0.00     0.185 C 
ATOM      8  C   UNL     1       0.897   2.376   0.000  1.00  0.00     0.050 C 
ATOM      9  C   UNL     1      -0.597   2.243   0.000  1.00  0.00     0.001 C 
ATOM     10  C   UNL     1      -1.583   3.373   0.000  1.00  0.00     0.008 C 
ENDROOT
BRANCH   1  11
ATOM     11  C   UNL     1       1.618  -2.260   0.000  1.00  0.00     0.337 C 
ATOM     12  O   UNL     1       2.929  -1.531   0.000  1.00  0.00    -0.246 OA
BRANCH  11  13
ATOM     13  O   UNL     1       1.594  -3.760   0.000  1.00  0.00    -0.466 OA
ATOM     14  C   UNL     1       2.881  -4.531   0.000  1.00  0.00     0.282 C 
ENDBRANCH  11  13
ENDBRANCH   1  11
BRANCH   7  15
ATOM     15  O   UNL     1       2.947   0.661   0.000  1.00  0.00    -0.462 OA
BRANCH  15  16
ATOM     16  C   UNL     1       3.969   1.759   0.000  1.00  0.00     0.302 C 
ATOM     17  C   UNL     1       5.431   1.424   0.000  1.00  0.00     0.139 C 
ATOM     18  O   UNL     1       3.528   3.193   0.000  1.00  0.00    -0.253 OA
ENDBRANCH  15  16
ENDBRANCH   7  15
BRANCH   4  19
ATOM     19  O   UNL     1      -3.530   0.822   0.000  1.00  0.00    -0.425 OA
BRANCH  19  20
ATOM     20  C   UNL     1      -4.841   0.093   0.000  1.00  0.00     0.305 C 
ATOM     21  C   UNL     1      -6.128   0.864   0.000  1.00  0.00     0.139 C 
ATOM     22  O   UNL     1      -4.865  -1.407   0.000  1.00  0.00    -0.253 OA
ENDBRANCH  19  20
ENDBRANCH   4  19
TORSDOF 6
