REMARK SMILES CC(C)=CCC/C(C)=C/CC/C(C)=C/C[C@]12CC(=O)O[C@H](C1)[C@@H](O)CC2=O
REMARK SMILES IDX 10 1 9 2 7 3 8 4 6 5 5 6 4 7 2 8 1 9 3 10 11 11 12 12 13 13
REMARK SMILES IDX 14 14 15 15 16 16 17 17 22 18 26 19 18 20 21 21 25 22 20 23
REMARK SMILES IDX 23 24 27 25 19 26 24 27
REMARK H PARENT 24 28
ROOT
ATOM      1  C   UNL     1      -2.320   0.174   0.000  1.00  0.00     0.032 C 
ENDROOT
BRANCH   1   2
ATOM      2  C   UNL     1      -3.584  -0.634   0.000  1.00  0.00    -0.028 C 
BRANCH   2   3
ATOM      3  C   UNL     1      -4.915   0.057   0.000  1.00  0.00    -0.077 C 
ATOM      4  C   UNL     1      -4.982   1.556   0.000  1.00  0.00     0.039 C 
BRANCH   3   5
ATOM      5  C   UNL     1      -6.179  -0.750   0.000  1.00  0.00     0.034 C 
BRANCH   5   6
ATOM      6  C   UNL     1      -7.511  -0.059   0.000  1.00  0.00     0.032 C 
BRANCH   6   7
ATOM      7  C   UNL     1      -8.774  -0.867   0.000  1.00  0.00    -0.028 C 
BRANCH   7   8
ATOM      8  C   UNL     1     -10.106  -0.176   0.000  1.00  0.00    -0.080 C 
ATOM      9  C   UNL     1     -11.370  -0.984   0.000  1.00  0.00     0.039 C 
ATOM     10  C   UNL     1     -10.173   1.322   0.000  1.00  0.00     0.039 C 
ENDBRANCH   7   8
ENDBRANCH   6   7
ENDBRANCH   5   6
ENDBRANCH   3   5
ENDBRANCH   2   3
ENDBRANCH   1   2
BRANCH   1  11
ATOM     11  C   UNL     1      -0.988  -0.517   0.000  1.00  0.00     0.034 C 
BRANCH  11  12
ATOM     12  C   UNL     1       0.276   0.290   0.000  1.00  0.00    -0.077 C 
ATOM     13  C   UNL     1       0.209   1.789   0.000  1.00  0.00     0.039 C 
BRANCH  12  14
ATOM     14  C   UNL     1       1.607  -0.401   0.000  1.00  0.00    -0.027 C 
BRANCH  14  15
ATOM     15  C   UNL     1       2.871   0.407   0.000  1.00  0.00     0.043 C 
BRANCH  15  16
ATOM     16  C   UNL     1       4.203  -0.284   0.000  1.00  0.00     0.047 C 
ATOM     17  C   UNL     1       4.270  -1.782   0.000  1.00  0.00     0.138 C 
ATOM     18  C   UNL     1       5.467   0.524   0.000  1.00  0.00     0.064 C 
ATOM     19  C   UNL     1       4.135   1.215   0.000  1.00  0.00     0.142 C 
ATOM     20  C   UNL     1       5.601  -2.473   0.000  1.00  0.00     0.307 C 
ATOM     21  C   UNL     1       6.798  -0.167   0.000  1.00  0.00     0.206 C 
ATOM     22  C   UNL     1       5.399   2.022   0.000  1.00  0.00     0.112 C 
ATOM     23  O   UNL     1       6.866  -1.666   0.000  1.00  0.00    -0.460 OA
ATOM     24  C   UNL     1       6.731   1.331   0.000  1.00  0.00     0.162 C 
ATOM     25  O   UNL     1       2.804   1.906   0.000  1.00  0.00    -0.299 OA
ATOM     26  O   UNL     1       5.669  -3.972   0.000  1.00  0.00    -0.252 OA
BRANCH  24  27
ATOM     27  O   UNL     1       7.995   2.139   0.000  1.00  0.00    -0.389 OA
ATOM     28  H   UNL     1       0.000   0.000   0.000  1.00  0.00     0.211 HD
ENDBRANCH  24  27
ENDBRANCH  15  16
ENDBRANCH  14  15
ENDBRANCH  12  14
ENDBRANCH  11  12
ENDBRANCH   1  11
TORSDOF 12
