REMARK SMILES C=C(CC(O)C(C)C1CCC2C3CC=C4[C@@H](O)[C@@H](O)CC[C@]4(C)C3CC[C@]12C)C(C)C
REMARK SMILES IDX 4 1 3 2 2 3 1 4 29 5 30 6 31 7 5 8 6 10 7 11 8 12 9 13 27 14
REMARK SMILES IDX 10 15 26 16 11 17 25 18 12 19 24 20 13 21 22 22 14 23 21 24
REMARK SMILES IDX 15 25 20 26 16 27 18 28 28 29 23 30 17 31 19 33
REMARK H PARENT 5 9 17 32 19 34
ROOT
ATOM      1  C   UNL     1       3.936   0.318   0.000  1.00  0.00     0.121 C 
ENDROOT
BRANCH   1   2
ATOM      2  C   UNL     1       5.368  -0.130   0.000  1.00  0.00     0.062 C 
BRANCH   2   3
ATOM      3  C   UNL     1       5.695  -1.594   0.000  1.00  0.00    -0.072 C 
ATOM      4  C   UNL     1       7.127  -2.042   0.000  1.00  0.00     0.008 C 
BRANCH   3   5
ATOM      5  C   UNL     1       4.591  -2.610   0.000  1.00  0.00     0.008 C 
ATOM      6  C   UNL     1       4.919  -4.073   0.000  1.00  0.00     0.012 C 
ATOM      7  C   UNL     1       3.160  -2.162   0.000  1.00  0.00     0.012 C 
ENDBRANCH   3   5
ENDBRANCH   2   3
ENDBRANCH   1   2
BRANCH   1   8
ATOM      8  O   UNL     1       2.832  -0.698   0.000  1.00  0.00    -0.393 OA
ATOM      9  H   UNL     1       0.000   0.000   0.000  1.00  0.00     0.210 HD
ENDBRANCH   1   8
BRANCH   1  10
ATOM     10  C   UNL     1       3.608   1.782   0.000  1.00  0.00     0.019 C 
ATOM     11  C   UNL     1       4.712   2.797   0.000  1.00  0.00     0.011 C 
BRANCH  10  12
ATOM     12  C   UNL     1       2.177   2.230   0.000  1.00  0.00     0.001 C 
ATOM     13  C   UNL     1       1.698   3.651   0.000  1.00  0.00     0.005 C 
ATOM     14  C   UNL     1       0.973   1.335   0.000  1.00  0.00    -0.026 C 
ATOM     15  C   UNL     1       0.198   3.635   0.000  1.00  0.00     0.005 C 
ATOM     16  C   UNL     1       0.832  -0.158   0.000  1.00  0.00     0.007 C 
ATOM     17  C   UNL     1      -0.250   2.204   0.000  1.00  0.00    -0.001 C 
ATOM     18  C   UNL     1      -0.531  -0.783   0.000  1.00  0.00     0.005 C 
ATOM     19  C   UNL     1      -1.614   1.579   0.000  1.00  0.00     0.000 C 
ATOM     20  C   UNL     1      -1.754   0.085   0.000  1.00  0.00     0.003 C 
ATOM     21  C   UNL     1      -2.837   2.447   0.000  1.00  0.00     0.031 C 
ATOM     22  C   UNL     1      -3.118  -0.539   0.000  1.00  0.00    -0.006 C 
ATOM     23  C   UNL     1      -4.200   1.822   0.000  1.00  0.00    -0.024 C 
ATOM     24  C   UNL     1      -3.259  -2.033   0.000  1.00  0.00     0.014 C 
ATOM     25  C   UNL     1      -4.341   0.329   0.000  1.00  0.00    -0.037 C 
ATOM     26  C   UNL     1      -4.622  -2.658   0.000  1.00  0.00     0.036 C 
ATOM     27  C   UNL     1      -5.705  -0.296   0.000  1.00  0.00     0.169 C 
ATOM     28  C   UNL     1      -5.845  -1.789   0.000  1.00  0.00     0.147 C 
ATOM     29  C   UNL     1       2.280   0.599   0.000  1.00  0.00     0.012 C 
ATOM     30  C   UNL     1      -1.895  -1.408   0.000  1.00  0.00     0.016 C 
BRANCH  27  31
ATOM     31  O   UNL     1      -6.928   0.573   0.000  1.00  0.00    -0.386 OA
ATOM     32  H   UNL     1       0.000   0.000   0.000  1.00  0.00     0.211 HD
ENDBRANCH  27  31
BRANCH  28  33
ATOM     33  O   UNL     1      -7.209  -2.414   0.000  1.00  0.00    -0.390 OA
ATOM     34  H   UNL     1       0.000   0.000   0.000  1.00  0.00     0.211 HD
ENDBRANCH  28  33
ENDBRANCH  10  12
ENDBRANCH   1  10
TORSDOF 8
