REMARK SMILES C[C@@H]1Cc2ccc3c(c2[C@](O)(c2ccc4c(c2)OCO4)[C@H]1C)OCO3
REMARK SMILES IDX 1 1 2 2 3 3 4 4 5 5 6 6 7 7 25 8 24 9 23 10 8 11 9 12 10 13
REMARK SMILES IDX 21 14 22 15 11 16 12 18 13 19 17 20 14 21 16 22 15 23 18 24
REMARK SMILES IDX 20 25 19 26
REMARK H PARENT 11 17
ROOT
ATOM      1  C   UNL     1       5.171   1.877   0.000  1.00  0.00     0.008 C 
ATOM      2  C   UNL     1       3.891   1.095   0.000  1.00  0.00    -0.003 C 
ATOM      3  C   UNL     1       3.929  -0.405   0.000  1.00  0.00     0.039 C 
ATOM      4  C   UNL     1       2.649  -1.187   0.000  1.00  0.00    -0.037 A 
ATOM      5  C   UNL     1       2.686  -2.687   0.000  1.00  0.00     0.008 A 
ATOM      6  C   UNL     1       1.406  -3.469   0.000  1.00  0.00     0.051 A 
ATOM      7  C   UNL     1       0.089  -2.751   0.000  1.00  0.00     0.166 A 
ATOM      8  O   UNL     1      -1.326  -3.250   0.000  1.00  0.00    -0.454 OA
ATOM      9  C   UNL     1      -2.237  -2.059   0.000  1.00  0.00     0.468 C 
ATOM     10  O   UNL     1      -1.386  -0.824   0.000  1.00  0.00    -0.453 OA
ATOM     11  C   UNL     1       0.051  -1.252   0.000  1.00  0.00     0.172 A 
ATOM     12  C   UNL     1       1.331  -0.470   0.000  1.00  0.00     0.038 A 
ATOM     13  C   UNL     1       1.294   1.030   0.000  1.00  0.00     0.122 C 
ATOM     14  C   UNL     1       2.574   1.812   0.000  1.00  0.00     0.030 C 
ATOM     15  C   UNL     1       2.537   3.312   0.000  1.00  0.00     0.012 C 
ENDROOT
BRANCH  13  16
ATOM     16  O   UNL     1       0.746   2.426   0.000  1.00  0.00    -0.380 OA
ATOM     17  H   UNL     1       0.000   0.000   0.000  1.00  0.00     0.212 HD
ENDBRANCH  13  16
BRANCH  13  18
ATOM     18  C   UNL     1      -0.176   0.733   0.000  1.00  0.00    -0.008 A 
ATOM     19  C   UNL     1      -0.654  -0.689   0.000  1.00  0.00     0.011 A 
ATOM     20  C   UNL     1      -1.169   1.857   0.000  1.00  0.00     0.057 A 
ATOM     21  C   UNL     1      -2.124  -0.987   0.000  1.00  0.00     0.051 A 
ATOM     22  C   UNL     1      -2.639   1.560   0.000  1.00  0.00     0.166 A 
ATOM     23  C   UNL     1      -3.117   0.138   0.000  1.00  0.00     0.165 A 
ATOM     24  O   UNL     1      -3.844   2.454   0.000  1.00  0.00    -0.454 OA
ATOM     25  O   UNL     1      -4.617   0.153   0.000  1.00  0.00    -0.454 OA
ATOM     26  C   UNL     1      -5.066   1.584   0.000  1.00  0.00     0.468 C 
ENDBRANCH  13  18
TORSDOF 2
