REMARK SMILES COc1cc2oc(CO)cc(=O)c2c(O)c1C
REMARK SMILES IDX 3 1 4 2 5 3 13 4 14 5 16 6 17 7 11 8 12 9 10 10 7 11 6 12
REMARK SMILES IDX 2 13 1 14 15 15 8 17 9 18
REMARK H PARENT 15 16 9 19
ROOT
ATOM      1  C   UNL     1      -2.465   0.729   0.000  1.00  0.00     0.129 A 
ATOM      2  C   UNL     1      -1.187   1.513   0.000  1.00  0.00     0.094 A 
ATOM      3  C   UNL     1       0.132   0.798   0.000  1.00  0.00     0.145 A 
ATOM      4  C   UNL     1       0.172  -0.702   0.000  1.00  0.00     0.107 A 
ATOM      5  C   UNL     1      -1.107  -1.486   0.000  1.00  0.00     0.137 A 
ATOM      6  C   UNL     1      -2.426  -0.770   0.000  1.00  0.00     0.034 A 
ATOM      7  C   UNL     1      -3.704  -1.554   0.000  1.00  0.00     0.052 C 
ATOM      8  C   UNL     1       1.490  -1.417   0.000  1.00  0.00     0.196 A 
ATOM      9  O   UNL     1       1.530  -2.916   0.000  1.00  0.00    -0.289 OA
ATOM     10  C   UNL     1       2.769  -0.633   0.000  1.00  0.00     0.097 A 
ATOM     11  C   UNL     1       2.729   0.867   0.000  1.00  0.00     0.133 A 
ATOM     12  O   UNL     1       1.411   1.582   0.000  1.00  0.00    -0.458 OA
ENDROOT
BRANCH   1  13
ATOM     13  O   UNL     1      -3.784   1.444   0.000  1.00  0.00    -0.496 OA
ATOM     14  C   UNL     1      -3.824   2.944   0.000  1.00  0.00     0.278 C 
ENDBRANCH   1  13
BRANCH   5  15
ATOM     15  O   UNL     1      -1.067  -2.985   0.000  1.00  0.00    -0.507 OA
ATOM     16  H   UNL     1       0.000   0.000   0.000  1.00  0.00     0.293 HD
ENDBRANCH   5  15
BRANCH  11  17
ATOM     17  C   UNL     1       4.008   1.651   0.000  1.00  0.00     0.231 C 
BRANCH  17  18
ATOM     18  O   UNL     1       5.326   0.935   0.000  1.00  0.00    -0.388 OA
ATOM     19  H   UNL     1       0.000   0.000   0.000  1.00  0.00     0.211 HD
ENDBRANCH  17  18
ENDBRANCH  11  17
TORSDOF 4
