REMARK SMILES COc1ccc(C(=O)C2=Cc3cc(OC)c(OC)cc3CO2)c(OC)c1
REMARK SMILES IDX 7 1 8 2 6 3 3 4 4 5 26 6 5 7 23 8 2 9 1 10 24 11 25 12 9 13
REMARK SMILES IDX 10 14 22 15 11 16 21 17 12 18 20 19 13 20 19 21 16 22 14 23
REMARK SMILES IDX 15 24 17 25 18 26
REMARK H PARENT
ROOT
ATOM      1  C   UNL     1      -1.475  -1.209   0.000  1.00  0.00     0.231 C 
ATOM      2  O   UNL     1      -1.507  -2.709   0.000  1.00  0.00    -0.285 OA
ENDROOT
BRANCH   1   3
ATOM      3  C   UNL     1      -2.758  -0.431   0.000  1.00  0.00     0.068 A 
ATOM      4  C   UNL     1      -5.323   1.124   0.000  1.00  0.00     0.122 A 
ATOM      5  C   UNL     1      -4.008   1.846   0.000  1.00  0.00     0.047 A 
ATOM      6  C   UNL     1      -5.355  -0.376   0.000  1.00  0.00     0.093 A 
ATOM      7  C   UNL     1      -2.726   1.068   0.000  1.00  0.00     0.020 A 
ATOM      8  C   UNL     1      -4.073  -1.154   0.000  1.00  0.00     0.133 A 
BRANCH   4   9
ATOM      9  O   UNL     1      -6.606   1.901   0.000  1.00  0.00    -0.497 OA
ATOM     10  C   UNL     1      -6.574   3.401   0.000  1.00  0.00     0.278 C 
ENDBRANCH   4   9
BRANCH   8  11
ATOM     11  O   UNL     1      -4.105  -2.653   0.000  1.00  0.00    -0.496 OA
ATOM     12  C   UNL     1      -5.419  -3.375   0.000  1.00  0.00     0.278 C 
ENDBRANCH   8  11
ENDBRANCH   1   3
BRANCH   1  13
ATOM     13  C   UNL     1      -0.160  -0.487   0.000  1.00  0.00     0.168 C 
ATOM     14  C   UNL     1       1.122  -1.265   0.000  1.00  0.00     0.059 C 
ATOM     15  O   UNL     1      -0.128   1.013   0.000  1.00  0.00    -0.485 OA
ATOM     16  C   UNL     1       2.437  -0.543   0.000  1.00  0.00    -0.011 A 
ATOM     17  C   UNL     1       1.187   1.735   0.000  1.00  0.00     0.266 C 
ATOM     18  C   UNL     1       3.720  -1.320   0.000  1.00  0.00     0.059 A 
ATOM     19  C   UNL     1       2.469   0.957   0.000  1.00  0.00     0.001 A 
ATOM     20  C   UNL     1       5.035  -0.598   0.000  1.00  0.00     0.161 A 
ATOM     21  C   UNL     1       3.784   1.679   0.000  1.00  0.00     0.058 A 
ATOM     22  C   UNL     1       5.067   0.901   0.000  1.00  0.00     0.161 A 
BRANCH  20  23
ATOM     23  O   UNL     1       6.317  -1.376   0.000  1.00  0.00    -0.493 OA
ATOM     24  C   UNL     1       6.285  -2.875   0.000  1.00  0.00     0.278 C 
ENDBRANCH  20  23
BRANCH  22  25
ATOM     25  O   UNL     1       6.381   1.624   0.000  1.00  0.00    -0.493 OA
ATOM     26  C   UNL     1       6.413   3.123   0.000  1.00  0.00     0.278 C 
ENDBRANCH  22  25
ENDBRANCH   1  13
TORSDOF 6
