REMARK SMILES C[C@@H]1CC[C@@]2(C)C(C3=CCC4[C@@]5(C)CC[C@@H](O)C(C)(C)C5CC[C@@]4(C)[C@]3(C)C[C@@H]2O)[C@H]1C
REMARK SMILES IDX 1 1 2 2 3 3 4 4 5 5 6 6 7 7 8 8 9 9 10 10 11 11 12 12 13 13
REMARK SMILES IDX 14 14 15 15 16 16 18 17 19 18 20 19 21 20 22 21 23 22 24 23
REMARK SMILES IDX 25 24 26 25 27 26 28 27 29 28 31 29 32 30 30 31 17 33
REMARK H PARENT 30 32 17 34
ROOT
ATOM      1  C   UNL     1      -6.180  -2.948   0.000  1.00  0.00     0.008 C 
ATOM      2  C   UNL     1      -5.379  -1.679   0.000  1.00  0.00    -0.011 C 
ATOM      3  C   UNL     1      -6.078  -0.352   0.000  1.00  0.00     0.004 C 
ATOM      4  C   UNL     1      -5.277   0.917   0.000  1.00  0.00     0.010 C 
ATOM      5  C   UNL     1      -3.779   0.858   0.000  1.00  0.00     0.000 C 
ATOM      6  C   UNL     1      -4.477   2.185   0.000  1.00  0.00     0.015 C 
ATOM      7  C   UNL     1      -3.080  -0.469   0.000  1.00  0.00     0.027 C 
ATOM      8  C   UNL     1      -1.581  -0.528   0.000  1.00  0.00    -0.064 C 
ATOM      9  C   UNL     1      -0.883  -1.856   0.000  1.00  0.00    -0.027 C 
ATOM     10  C   UNL     1       0.616  -1.915   0.000  1.00  0.00     0.032 C 
ATOM     11  C   UNL     1       1.416  -0.646   0.000  1.00  0.00     0.006 C 
ATOM     12  C   UNL     1       2.915  -0.705   0.000  1.00  0.00    -0.025 C 
ATOM     13  C   UNL     1       2.115  -1.973   0.000  1.00  0.00     0.012 C 
ATOM     14  C   UNL     1       3.614  -2.032   0.000  1.00  0.00     0.010 C 
ATOM     15  C   UNL     1       5.113  -2.091   0.000  1.00  0.00     0.033 C 
ATOM     16  C   UNL     1       5.913  -0.822   0.000  1.00  0.00     0.120 C 
ATOM     17  C   UNL     1       5.215   0.505   0.000  1.00  0.00    -0.006 C 
ATOM     18  C   UNL     1       5.012   1.991   0.000  1.00  0.00     0.014 C 
ATOM     19  C   UNL     1       6.643   0.962   0.000  1.00  0.00     0.014 C 
ATOM     20  C   UNL     1       3.716   0.564   0.000  1.00  0.00     0.003 C 
ATOM     21  C   UNL     1       3.017   1.891   0.000  1.00  0.00     0.005 C 
ATOM     22  C   UNL     1       1.518   1.950   0.000  1.00  0.00     0.008 C 
ATOM     23  C   UNL     1       0.718   0.681   0.000  1.00  0.00    -0.020 C 
ATOM     24  C   UNL     1       0.019   2.009   0.000  1.00  0.00     0.012 C 
ATOM     25  C   UNL     1      -0.781   0.740   0.000  1.00  0.00    -0.003 C 
ATOM     26  C   UNL     1      -2.280   0.799   0.000  1.00  0.00     0.017 C 
ATOM     27  C   UNL     1      -1.479   2.068   0.000  1.00  0.00     0.044 C 
ATOM     28  C   UNL     1      -2.978   2.127   0.000  1.00  0.00     0.121 C 
ATOM     29  C   UNL     1      -3.881  -1.738   0.000  1.00  0.00    -0.004 C 
ATOM     30  C   UNL     1      -3.182  -3.066   0.000  1.00  0.00     0.008 C 
ENDROOT
BRANCH  28  31
ATOM     31  O   UNL     1      -3.677   3.454   0.000  1.00  0.00    -0.393 OA
ATOM     32  H   UNL     1       0.000   0.000   0.000  1.00  0.00     0.210 HD
ENDBRANCH  28  31
BRANCH  16  33
ATOM     33  O   UNL     1       7.412  -0.881   0.000  1.00  0.00    -0.393 OA
ATOM     34  H   UNL     1       0.000   0.000   0.000  1.00  0.00     0.210 HD
ENDBRANCH  16  33
TORSDOF 2
