REMARK SMILES c1ccc(CSCc2ccccc2)cc1
REMARK SMILES IDX 6 1 5 2 4 3 1 4 2 5 15 6 3 7 14 8 7 9 8 10 9 11 13 12 10 13
REMARK SMILES IDX 12 14 11 15
REMARK H PARENT
ROOT
ATOM      1  S   UNL     1      -0.000   0.500   0.000  1.00  0.00    -0.152 SA
ENDROOT
BRANCH   1   2
ATOM      2  C   UNL     1      -1.299   1.250   0.000  1.00  0.00     0.105 C 
BRANCH   2   3
ATOM      3  C   UNL     1      -2.598   0.500   0.000  1.00  0.00    -0.038 A 
ATOM      4  C   UNL     1      -5.196  -1.000   0.000  1.00  0.00     0.000 A 
ATOM      5  C   UNL     1      -5.196   0.500   0.000  1.00  0.00     0.000 A 
ATOM      6  C   UNL     1      -3.897  -1.750   0.000  1.00  0.00     0.000 A 
ATOM      7  C   UNL     1      -3.897   1.250   0.000  1.00  0.00     0.004 A 
ATOM      8  C   UNL     1      -2.598  -1.000   0.000  1.00  0.00     0.004 A 
ENDBRANCH   2   3
ENDBRANCH   1   2
BRANCH   1   9
ATOM      9  C   UNL     1       1.299   1.250   0.000  1.00  0.00     0.105 C 
BRANCH   9  10
ATOM     10  C   UNL     1       2.598   0.500   0.000  1.00  0.00    -0.038 A 
ATOM     11  C   UNL     1       2.598  -1.000   0.000  1.00  0.00     0.004 A 
ATOM     12  C   UNL     1       3.897   1.250   0.000  1.00  0.00     0.004 A 
ATOM     13  C   UNL     1       3.897  -1.750   0.000  1.00  0.00     0.000 A 
ATOM     14  C   UNL     1       5.196   0.500   0.000  1.00  0.00     0.000 A 
ATOM     15  C   UNL     1       5.196  -1.000   0.000  1.00  0.00     0.000 A 
ENDBRANCH   9  10
ENDBRANCH   1   9
TORSDOF 4
