REMARK SMILES CC(C)(O)[C@@H]1CC[C@@](C)([C@H]2CC[C@]3(C)[C@@H]2CC[C@@H]2[C@@]4(C)CC/C(=N\Nc5ccc([N+](=O)[O-])cc5[N+](=O)[O-])C(C)(C)[C@@H]4CC[C@]23C)O1
REMARK SMILES IDX 10 1 11 2 12 3 13 4 14 5 15 6 16 7 17 8 18 9 19 10 20 11
REMARK SMILES IDX 21 12 22 13 23 14 38 15 39 16 40 17 41 18 42 19 43 20 44 21
REMARK SMILES IDX 45 22 8 23 5 24 6 25 46 26 7 27 9 28 2 29 1 30 3 31 4 32
REMARK SMILES IDX 24 34 25 35 26 37 27 38 34 39 28 40 33 41 29 42 35 43 36 44
REMARK SMILES IDX 37 45 30 46 31 47 32 48
REMARK H PARENT 4 33 25 36
ROOT
ATOM      1  C   UNL     1       5.836   0.185   0.000  1.00  0.00     0.025 C 
ATOM      2  C   UNL     1       6.079  -1.295   0.000  1.00  0.00     0.007 C 
ATOM      3  C   UNL     1       4.746  -1.983   0.000  1.00  0.00     0.008 C 
ATOM      4  C   UNL     1       3.680  -0.928   0.000  1.00  0.00    -0.024 C 
ATOM      5  C   UNL     1       3.150  -2.331   0.000  1.00  0.00     0.012 C 
ATOM      6  C   UNL     1       4.354   0.412   0.000  1.00  0.00     0.001 C 
ATOM      7  C   UNL     1       3.530   1.666   0.000  1.00  0.00     0.005 C 
ATOM      8  C   UNL     1       2.033   1.579   0.000  1.00  0.00     0.005 C 
ATOM      9  C   UNL     1       1.359   0.239   0.000  1.00  0.00     0.002 C 
ATOM     10  C   UNL     1      -0.139   0.153   0.000  1.00  0.00    -0.025 C 
ATOM     11  C   UNL     1       0.535   1.493   0.000  1.00  0.00     0.012 C 
ATOM     12  C   UNL     1      -0.963   1.406   0.000  1.00  0.00     0.013 C 
ATOM     13  C   UNL     1      -2.460   1.320   0.000  1.00  0.00     0.054 C 
ATOM     14  C   UNL     1      -3.134  -0.020   0.000  1.00  0.00     0.044 C 
ATOM     15  C   UNL     1      -2.310  -1.274   0.000  1.00  0.00     0.008 C 
ATOM     16  C   UNL     1      -1.965  -2.734   0.000  1.00  0.00     0.018 C 
ATOM     17  C   UNL     1      -3.688  -1.867   0.000  1.00  0.00     0.018 C 
ATOM     18  C   UNL     1      -0.813  -1.188   0.000  1.00  0.00     0.007 C 
ATOM     19  C   UNL     1       0.011  -2.441   0.000  1.00  0.00     0.006 C 
ATOM     20  C   UNL     1       1.508  -2.355   0.000  1.00  0.00     0.008 C 
ATOM     21  C   UNL     1       2.182  -1.015   0.000  1.00  0.00    -0.024 C 
ATOM     22  C   UNL     1       2.856   0.326   0.000  1.00  0.00     0.012 C 
ENDROOT
BRANCH   1  23
ATOM     23  C   UNL     1       6.891   1.252   0.000  1.00  0.00     0.069 C 
ATOM     24  C   UNL     1       9.239   0.636   0.000  1.00  0.00     0.150 C 
ATOM     25  C   UNL     1       9.153   2.133   0.000  1.00  0.00     0.038 C 
ATOM     26  O   UNL     1       7.842   0.091   0.000  1.00  0.00    -0.369 OA
ATOM     27  C   UNL     1       7.702   2.514   0.000  1.00  0.00     0.038 C 
ATOM     28  C   UNL     1       5.721   2.189   0.000  1.00  0.00     0.042 C 
BRANCH  24  29
ATOM     29  C   UNL     1      10.501  -0.174   0.000  1.00  0.00     0.085 C 
ATOM     30  C   UNL     1      11.312   1.088   0.000  1.00  0.00     0.044 C 
ATOM     31  C   UNL     1       9.691  -1.437   0.000  1.00  0.00     0.044 C 
BRANCH  29  32
ATOM     32  O   UNL     1      11.764  -0.985   0.000  1.00  0.00    -0.388 OA
ATOM     33  H   UNL     1       0.000   0.000   0.000  1.00  0.00     0.211 HD
ENDBRANCH  29  32
ENDBRANCH  24  29
ENDBRANCH   1  23
BRANCH  14  34
ATOM     34  N   UNL     1      -4.631  -0.107   0.000  1.00  0.00    -0.184 NA
BRANCH  34  35
ATOM     35  N   UNL     1      -5.455   1.147   0.000  1.00  0.00    -0.272 N 
ATOM     36  H   UNL     1       0.000   0.000   0.000  1.00  0.00     0.190 HD
BRANCH  35  37
ATOM     37  C   UNL     1      -6.952   1.060   0.000  1.00  0.00     0.134 A 
ATOM     38  C   UNL     1      -7.776   2.314   0.000  1.00  0.00     0.042 A 
ATOM     39  C   UNL     1      -7.626  -0.280   0.000  1.00  0.00     0.301 A 
ATOM     40  C   UNL     1      -9.274   2.228   0.000  1.00  0.00     0.088 A 
ATOM     41  C   UNL     1      -9.124  -0.366   0.000  1.00  0.00     0.173 A 
ATOM     42  C   UNL     1      -9.947   0.887   0.000  1.00  0.00     0.276 A 
BRANCH  39  43
ATOM     43  N   UNL     1      -6.803  -1.533   0.000  1.00  0.00     0.065 N 
ATOM     44  O   UNL     1      -5.305  -1.447   0.000  1.00  0.00    -0.258 OA
ATOM     45  O   UNL     1      -7.477  -2.873   0.000  1.00  0.00    -0.258 OA
ENDBRANCH  39  43
BRANCH  42  46
ATOM     46  N   UNL     1     -11.445   0.801   0.000  1.00  0.00     0.062 N 
ATOM     47  O   UNL     1     -12.119  -0.539   0.000  1.00  0.00    -0.258 OA
ATOM     48  O   UNL     1     -12.269   2.055   0.000  1.00  0.00    -0.258 OA
ENDBRANCH  42  46
ENDBRANCH  35  37
ENDBRANCH  34  35
ENDBRANCH  14  34
TORSDOF 8
