REMARK SMILES COc1ccc2c(OC)c3ccoc3nc2c1
REMARK SMILES IDX 3 1 4 2 5 3 6 4 7 5 10 6 11 7 12 8 13 9 14 10 15 11 16 12
REMARK SMILES IDX 17 13 2 14 1 15 8 16 9 17
REMARK H PARENT
ROOT
ATOM      1  C   UNL     1       3.198   0.367   0.000  1.00  0.00     0.121 A 
ATOM      2  C   UNL     1       2.890  -1.101   0.000  1.00  0.00     0.047 A 
ATOM      3  C   UNL     1       1.465  -1.569   0.000  1.00  0.00     0.018 A 
ATOM      4  C   UNL     1       0.347  -0.569   0.000  1.00  0.00     0.043 A 
ATOM      5  C   UNL     1      -1.078  -1.036   0.000  1.00  0.00     0.141 A 
ATOM      6  C   UNL     1      -2.196  -0.036   0.000  1.00  0.00     0.083 A 
ATOM      7  C   UNL     1      -3.687  -0.197   0.000  1.00  0.00     0.056 A 
ATOM      8  C   UNL     1      -4.301   1.172   0.000  1.00  0.00     0.198 A 
ATOM      9  O   UNL     1      -3.189   2.179   0.000  1.00  0.00    -0.446 OA
ATOM     10  C   UNL     1      -1.888   1.432   0.000  1.00  0.00     0.230 A 
ATOM     11  N   UNL     1      -0.463   1.900   0.000  1.00  0.00    -0.212 NA
ATOM     12  C   UNL     1       0.655   0.899   0.000  1.00  0.00     0.082 A 
ATOM     13  C   UNL     1       2.080   1.367   0.000  1.00  0.00     0.075 A 
ENDROOT
BRANCH   1  14
ATOM     14  O   UNL     1       4.623   0.834   0.000  1.00  0.00    -0.497 OA
ATOM     15  C   UNL     1       5.740  -0.166   0.000  1.00  0.00     0.278 C 
ENDBRANCH   1  14
BRANCH   5  16
ATOM     16  O   UNL     1      -1.386  -2.504   0.000  1.00  0.00    -0.495 OA
ATOM     17  C   UNL     1      -2.811  -2.972   0.000  1.00  0.00     0.278 C 
ENDBRANCH   5  16
TORSDOF 2
