REMARK SMILES COc1c(OC)c(O)c2c(=O)c3cccc(O)c3[nH]c2c1OC
REMARK SMILES IDX 3 1 4 2 7 3 9 4 10 5 11 6 12 7 13 8 14 9 15 10 16 11 18 12
REMARK SMILES IDX 19 13 20 14 21 15 2 17 1 18 5 19 6 20 22 21 23 22 8 23 17 25
REMARK H PARENT 19 16 8 24 17 26
ROOT
ATOM      1  C   UNL     1      -2.683   0.294   0.000  1.00  0.00     0.209 A 
ATOM      2  C   UNL     1      -2.574  -1.202   0.000  1.00  0.00     0.207 A 
ATOM      3  C   UNL     1      -1.223  -1.855   0.000  1.00  0.00     0.175 A 
ATOM      4  C   UNL     1       0.017  -1.012   0.000  1.00  0.00     0.096 A 
ATOM      5  C   UNL     1       1.368  -1.665   0.000  1.00  0.00     0.201 A 
ATOM      6  O   UNL     1       1.477  -3.162   0.000  1.00  0.00    -0.288 OA
ATOM      7  C   UNL     1       2.609  -0.823   0.000  1.00  0.00     0.050 A 
ATOM      8  C   UNL     1       3.959  -1.476   0.000  1.00  0.00     0.014 A 
ATOM      9  C   UNL     1       5.200  -0.633   0.000  1.00  0.00     0.005 A 
ATOM     10  C   UNL     1       5.090   0.863   0.000  1.00  0.00     0.048 A 
ATOM     11  C   UNL     1       3.740   1.516   0.000  1.00  0.00     0.139 A 
ATOM     12  C   UNL     1       2.499   0.673   0.000  1.00  0.00     0.092 A 
ATOM     13  N   UNL     1       1.149   1.327   0.000  1.00  0.00    -0.348 N 
ATOM     14  C   UNL     1      -0.092   0.484   0.000  1.00  0.00     0.101 A 
ATOM     15  C   UNL     1      -1.442   1.137   0.000  1.00  0.00     0.189 A 
ATOM     16  H   UNL     1       0.000   0.000   0.000  1.00  0.00     0.167 HD
ENDROOT
BRANCH   1  17
ATOM     17  O   UNL     1      -4.034   0.947   0.000  1.00  0.00    -0.490 OA
ATOM     18  C   UNL     1      -4.143   2.443   0.000  1.00  0.00     0.278 C 
ENDBRANCH   1  17
BRANCH   2  19
ATOM     19  O   UNL     1      -3.815  -2.045   0.000  1.00  0.00    -0.490 OA
ATOM     20  C   UNL     1      -5.165  -1.391   0.000  1.00  0.00     0.278 C 
ENDBRANCH   2  19
BRANCH  15  21
ATOM     21  O   UNL     1      -1.552   2.633   0.000  1.00  0.00    -0.491 OA
ATOM     22  C   UNL     1      -2.902   3.286   0.000  1.00  0.00     0.278 C 
ENDBRANCH  15  21
BRANCH   3  23
ATOM     23  O   UNL     1      -1.114  -3.351   0.000  1.00  0.00    -0.504 OA
ATOM     24  H   UNL     1       0.000   0.000   0.000  1.00  0.00     0.293 HD
ENDBRANCH   3  23
BRANCH  11  25
ATOM     25  O   UNL     1       3.631   3.012   0.000  1.00  0.00    -0.506 OA
ATOM     26  H   UNL     1       0.000   0.000   0.000  1.00  0.00     0.293 HD
ENDBRANCH  11  25
TORSDOF 5
