REMARK SMILES COc1cc([C@@H]2O[C@H](c3cc(OC)c4c(c3)OCO4)[C@@H](C)[C@@H]2CO)cc(OC)c1OC
REMARK SMILES IDX 6 1 7 2 8 3 20 4 21 5 22 6 5 7 3 8 4 9 29 10 26 11 25 12
REMARK SMILES IDX 2 13 1 14 30 15 31 16 27 17 28 18 23 19 24 20 9 22 10 23
REMARK SMILES IDX 16 24 11 25 15 26 14 27 17 28 19 29 18 30 12 31 13 32
REMARK H PARENT 24 21
ROOT
ATOM      1  C   UNL     1       0.939   0.716   0.000  1.00  0.00     0.155 C 
ATOM      2  O   UNL     1      -0.259  -0.186   0.000  1.00  0.00    -0.365 OA
ATOM      3  C   UNL     1      -1.488   0.674   0.000  1.00  0.00     0.152 C 
ATOM      4  C   UNL     1      -1.049   2.108   0.000  1.00  0.00     0.028 C 
ATOM      5  C   UNL     1      -1.952   3.306   0.000  1.00  0.00     0.011 C 
ATOM      6  C   UNL     1       0.451   2.135   0.000  1.00  0.00     0.054 C 
ENDROOT
BRANCH   1   7
ATOM      7  C   UNL     1       2.373   0.278   0.000  1.00  0.00    -0.011 A 
ATOM      8  C   UNL     1       4.145  -1.622   0.000  1.00  0.00     0.165 A 
ATOM      9  C   UNL     1       2.711  -1.184   0.000  1.00  0.00     0.057 A 
ATOM     10  C   UNL     1       5.242  -0.599   0.000  1.00  0.00     0.203 A 
ATOM     11  C   UNL     1       4.905   0.862   0.000  1.00  0.00     0.165 A 
ATOM     12  C   UNL     1       3.470   1.301   0.000  1.00  0.00     0.057 A 
BRANCH   8  13
ATOM     13  O   UNL     1       4.483  -3.084   0.000  1.00  0.00    -0.493 OA
ATOM     14  C   UNL     1       3.386  -4.107   0.000  1.00  0.00     0.278 C 
ENDBRANCH   8  13
BRANCH  10  15
ATOM     15  O   UNL     1       6.677  -1.038   0.000  1.00  0.00    -0.490 OA
ATOM     16  C   UNL     1       7.014  -2.499   0.000  1.00  0.00     0.278 C 
ENDBRANCH  10  15
BRANCH  11  17
ATOM     17  O   UNL     1       6.002   1.885   0.000  1.00  0.00    -0.493 OA
ATOM     18  C   UNL     1       7.436   1.447   0.000  1.00  0.00     0.278 C 
ENDBRANCH  11  17
ENDBRANCH   1   7
BRANCH   6  19
ATOM     19  C   UNL     1       1.311   3.363   0.000  1.00  0.00     0.163 C 
BRANCH  19  20
ATOM     20  O   UNL     1       0.677   4.723   0.000  1.00  0.00    -0.396 OA
ATOM     21  H   UNL     1       0.000   0.000   0.000  1.00  0.00     0.210 HD
ENDBRANCH  19  20
ENDBRANCH   6  19
BRANCH   3  22
ATOM     22  C   UNL     1      -2.906   0.185   0.000  1.00  0.00    -0.011 A 
ATOM     23  C   UNL     1      -3.192  -1.287   0.000  1.00  0.00     0.057 A 
ATOM     24  C   UNL     1      -4.038   1.170   0.000  1.00  0.00     0.057 A 
ATOM     25  C   UNL     1      -4.611  -1.775   0.000  1.00  0.00     0.165 A 
ATOM     26  C   UNL     1      -5.456   0.681   0.000  1.00  0.00     0.170 A 
ATOM     27  C   UNL     1      -5.743  -0.791   0.000  1.00  0.00     0.207 A 
ATOM     28  O   UNL     1      -6.768   1.408   0.000  1.00  0.00    -0.453 OA
ATOM     29  O   UNL     1      -7.231  -0.974   0.000  1.00  0.00    -0.450 OA
ATOM     30  C   UNL     1      -7.865   0.385   0.000  1.00  0.00     0.468 C 
BRANCH  25  31
ATOM     31  O   UNL     1      -4.897  -3.248   0.000  1.00  0.00    -0.493 OA
ATOM     32  C   UNL     1      -3.765  -4.232   0.000  1.00  0.00     0.278 C 
ENDBRANCH  25  31
ENDBRANCH   3  22
TORSDOF 8
