REMARK SMILES O=c1ccc2ccc3occc3c2o1
REMARK SMILES IDX 1 1 2 2 3 3 4 4 5 5 6 6 7 7 8 8 9 9 10 10 11 11 12 12 13 13
REMARK SMILES IDX 14 14
REMARK H PARENT
ROOT
ATOM      1  O   UNL     1       3.875   1.868   0.000  1.00  0.00    -0.246 OA
ATOM      2  C   UNL     1       2.807   0.815   0.000  1.00  0.00     0.336 A 
ATOM      3  C   UNL     1       3.184  -0.637   0.000  1.00  0.00     0.094 A 
ATOM      4  C   UNL     1       2.116  -1.690   0.000  1.00  0.00     0.019 A 
ATOM      5  C   UNL     1       0.670  -1.290   0.000  1.00  0.00     0.018 A 
ATOM      6  C   UNL     1      -0.399  -2.343   0.000  1.00  0.00     0.016 A 
ATOM      7  C   UNL     1      -1.845  -1.944   0.000  1.00  0.00     0.048 A 
ATOM      8  C   UNL     1      -2.222  -0.492   0.000  1.00  0.00     0.137 A 
ATOM      9  O   UNL     1      -3.554   0.199   0.000  1.00  0.00    -0.464 OA
ATOM     10  C   UNL     1      -3.308   1.678   0.000  1.00  0.00     0.196 A 
ATOM     11  C   UNL     1      -1.825   1.902   0.000  1.00  0.00     0.054 A 
ATOM     12  C   UNL     1      -1.154   0.560   0.000  1.00  0.00     0.064 A 
ATOM     13  C   UNL     1       0.292   0.161   0.000  1.00  0.00     0.149 A 
ATOM     14  O   UNL     1       1.361   1.214   0.000  1.00  0.00    -0.422 OA
ENDROOT
TORSDOF 0
