REMARK SMILES O=c1cc[nH]c(=O)[nH]1
REMARK SMILES IDX 1 1 2 2 3 3 4 4 5 5 6 6 7 7 8 8
REMARK H PARENT 5 9 8 10
ROOT
ATOM      1  O   UNL     1      -2.598  -1.125   0.000  1.00  0.00    -0.269 OA
ATOM      2  C   UNL     1      -1.299  -0.375   0.000  1.00  0.00     0.253 A 
ATOM      3  C   UNL     1      -1.299   1.125   0.000  1.00  0.00     0.089 A 
ATOM      4  C   UNL     1       0.000   1.875   0.000  1.00  0.00     0.093 A 
ATOM      5  N   UNL     1       1.299   1.125   0.000  1.00  0.00    -0.314 N 
ATOM      6  C   UNL     1       1.299  -0.375   0.000  1.00  0.00     0.325 A 
ATOM      7  O   UNL     1       2.598  -1.125   0.000  1.00  0.00    -0.248 OA
ATOM      8  N   UNL     1      -0.000  -1.125   0.000  1.00  0.00    -0.274 N 
ATOM      9  H   UNL     1       0.000   0.000   0.000  1.00  0.00     0.171 HD
ATOM     10  H   UNL     1       0.000   0.000   0.000  1.00  0.00     0.175 HD
ENDROOT
TORSDOF 0
