REMARK SMILES CC(C)COC(=O)c1cc(O)c(O)c(O)c1
REMARK SMILES IDX 5 1 4 2 2 3 1 4 3 5 6 6 7 7 8 8 9 9 16 10 10 11 14 12 12 13
REMARK SMILES IDX 11 14 15 16 13 18
REMARK H PARENT 11 15 15 17 13 19
ROOT
ATOM      1  O   UNL     1      -2.072  -0.052   0.000  1.00  0.00    -0.462 OA
ENDROOT
BRANCH   1   2
ATOM      2  C   UNL     1      -3.485  -0.558   0.000  1.00  0.00     0.236 C 
BRANCH   2   3
ATOM      3  C   UNL     1      -4.629   0.412   0.000  1.00  0.00     0.021 C 
ATOM      4  C   UNL     1      -6.041  -0.093   0.000  1.00  0.00     0.011 C 
ATOM      5  C   UNL     1      -4.361   1.888   0.000  1.00  0.00     0.011 C 
ENDBRANCH   2   3
ENDBRANCH   1   2
BRANCH   1   6
ATOM      6  C   UNL     1      -0.928  -1.022   0.000  1.00  0.00     0.338 C 
ATOM      7  O   UNL     1      -1.197  -2.498   0.000  1.00  0.00    -0.246 OA
BRANCH   6   8
ATOM      8  C   UNL     1       0.484  -0.517   0.000  1.00  0.00     0.067 A 
ATOM      9  C   UNL     1       0.752   0.959   0.000  1.00  0.00     0.066 A 
ATOM     10  C   UNL     1       1.628  -1.487   0.000  1.00  0.00     0.066 A 
ATOM     11  C   UNL     1       2.164   1.465   0.000  1.00  0.00     0.162 A 
ATOM     12  C   UNL     1       3.040  -0.981   0.000  1.00  0.00     0.162 A 
ATOM     13  C   UNL     1       3.308   0.495   0.000  1.00  0.00     0.200 A 
BRANCH  11  14
ATOM     14  O   UNL     1       2.432   2.941   0.000  1.00  0.00    -0.504 OA
ATOM     15  H   UNL     1       0.000   0.000   0.000  1.00  0.00     0.293 HD
ENDBRANCH  11  14
BRANCH  12  16
ATOM     16  O   UNL     1       4.184  -1.951   0.000  1.00  0.00    -0.504 OA
ATOM     17  H   UNL     1       0.000   0.000   0.000  1.00  0.00     0.293 HD
ENDBRANCH  12  16
BRANCH  13  18
ATOM     18  O   UNL     1       4.720   1.000   0.000  1.00  0.00    -0.502 OA
ATOM     19  H   UNL     1       0.000   0.000   0.000  1.00  0.00     0.293 HD
ENDBRANCH  13  18
ENDBRANCH   6   8
ENDBRANCH   1   6
TORSDOF 7
