REMARK SMILES C[C@H]1OC(=O)c2c(ccc(O)c2O)[C@H]1O
REMARK SMILES IDX 1 1 2 2 3 3 4 4 5 5 6 6 7 7 8 8 9 9 10 10 12 11 14 12 15 13
REMARK SMILES IDX 13 15 11 17
REMARK H PARENT 15 14 13 16 11 18
ROOT
ATOM      1  C   UNL     1      -4.171   0.101   0.000  1.00  0.00     0.056 C 
ATOM      2  C   UNL     1      -2.676   0.220   0.000  1.00  0.00     0.207 C 
ATOM      3  O   UNL     1      -2.032   1.575   0.000  1.00  0.00    -0.456 OA
ATOM      4  C   UNL     1      -0.537   1.695   0.000  1.00  0.00     0.342 C 
ATOM      5  O   UNL     1       0.107   3.049   0.000  1.00  0.00    -0.246 OA
ATOM      6  C   UNL     1       0.314   0.460   0.000  1.00  0.00     0.111 A 
ATOM      7  C   UNL     1      -0.330  -0.895   0.000  1.00  0.00     0.003 A 
ATOM      8  C   UNL     1       0.521  -2.130   0.000  1.00  0.00     0.011 A 
ATOM      9  C   UNL     1       2.017  -2.011   0.000  1.00  0.00     0.050 A 
ATOM     10  C   UNL     1       2.661  -0.656   0.000  1.00  0.00     0.158 A 
ATOM     11  C   UNL     1       1.810   0.579   0.000  1.00  0.00     0.172 A 
ATOM     12  C   UNL     1      -1.825  -1.015   0.000  1.00  0.00     0.186 C 
ENDROOT
BRANCH  12  13
ATOM     13  O   UNL     1      -2.469  -2.369   0.000  1.00  0.00    -0.385 OA
ATOM     14  H   UNL     1       0.000   0.000   0.000  1.00  0.00     0.211 HD
ENDBRANCH  12  13
BRANCH  11  15
ATOM     15  O   UNL     1       2.454   1.934   0.000  1.00  0.00    -0.504 OA
ATOM     16  H   UNL     1       0.000   0.000   0.000  1.00  0.00     0.293 HD
ENDBRANCH  11  15
BRANCH  10  17
ATOM     17  O   UNL     1       4.156  -0.536   0.000  1.00  0.00    -0.504 OA
ATOM     18  H   UNL     1       0.000   0.000   0.000  1.00  0.00     0.293 HD
ENDBRANCH  10  17
TORSDOF 3
