REMARK SMILES C=C1OC(=O)C(CCCCCCCCCCCCCc2ccc3c(c2)OCO3)=C1O
REMARK SMILES IDX 12 1 11 2 10 3 9 4 8 5 7 6 6 7 2 8 3 9 29 10 4 11 1 12 5 13
REMARK SMILES IDX 30 14 13 16 14 17 15 18 16 19 17 20 18 21 19 22 20 23 21 24
REMARK SMILES IDX 25 25 22 26 24 27 23 28 26 29 28 30 27 31
REMARK H PARENT 30 15
ROOT
ATOM      1  C   UNL     1       2.012   0.272   0.000  1.00  0.00     0.000 C 
ENDROOT
BRANCH   1   2
ATOM      2  C   UNL     1       3.312   1.019   0.000  1.00  0.00     0.000 C 
BRANCH   2   3
ATOM      3  C   UNL     1       4.610   0.267   0.000  1.00  0.00     0.000 C 
BRANCH   3   4
ATOM      4  C   UNL     1       5.910   1.014   0.000  1.00  0.00     0.000 C 
BRANCH   4   5
ATOM      5  C   UNL     1       7.208   0.261   0.000  1.00  0.00     0.005 C 
BRANCH   5   6
ATOM      6  C   UNL     1       8.508   1.009   0.000  1.00  0.00     0.047 C 
BRANCH   6   7
ATOM      7  C   UNL     1       9.806   0.256   0.000  1.00  0.00     0.083 C 
ATOM      8  C   UNL     1      11.426  -1.551   0.000  1.00  0.00     0.166 C 
ATOM      9  O   UNL     1      12.179  -0.253   0.000  1.00  0.00    -0.420 OA
ATOM     10  C   UNL     1       9.960  -1.236   0.000  1.00  0.00     0.168 C 
ATOM     11  C   UNL     1      11.177   0.863   0.000  1.00  0.00     0.343 C 
ATOM     12  C   UNL     1      12.033  -2.922   0.000  1.00  0.00     0.064 C 
ATOM     13  O   UNL     1      11.492   2.330   0.000  1.00  0.00    -0.246 OA
BRANCH  10  14
ATOM     14  O   UNL     1       8.843  -2.237   0.000  1.00  0.00    -0.504 OA
ATOM     15  H   UNL     1       0.000   0.000   0.000  1.00  0.00     0.293 HD
ENDBRANCH  10  14
ENDBRANCH   6   7
ENDBRANCH   5   6
ENDBRANCH   4   5
ENDBRANCH   3   4
ENDBRANCH   2   3
ENDBRANCH   1   2
BRANCH   1  16
ATOM     16  C   UNL     1       0.714   1.025   0.000  1.00  0.00     0.000 C 
BRANCH  16  17
ATOM     17  C   UNL     1      -0.587   0.277   0.000  1.00  0.00     0.000 C 
BRANCH  17  18
ATOM     18  C   UNL     1      -1.884   1.030   0.000  1.00  0.00     0.000 C 
BRANCH  18  19
ATOM     19  C   UNL     1      -3.185   0.283   0.000  1.00  0.00     0.000 C 
BRANCH  19  20
ATOM     20  C   UNL     1      -4.482   1.035   0.000  1.00  0.00     0.000 C 
BRANCH  20  21
ATOM     21  C   UNL     1      -5.783   0.288   0.000  1.00  0.00     0.005 C 
BRANCH  21  22
ATOM     22  C   UNL     1      -7.080   1.040   0.000  1.00  0.00     0.035 C 
BRANCH  22  23
ATOM     23  C   UNL     1      -8.381   0.293   0.000  1.00  0.00    -0.044 A 
ATOM     24  C   UNL     1      -8.384  -1.207   0.000  1.00  0.00     0.008 A 
ATOM     25  C   UNL     1      -9.678   1.046   0.000  1.00  0.00     0.054 A 
ATOM     26  C   UNL     1      -9.684  -1.954   0.000  1.00  0.00     0.051 A 
ATOM     27  C   UNL     1     -10.979   0.298   0.000  1.00  0.00     0.166 A 
ATOM     28  C   UNL     1     -10.982  -1.202   0.000  1.00  0.00     0.165 A 
ATOM     29  O   UNL     1     -12.404   0.765   0.000  1.00  0.00    -0.454 OA
ATOM     30  O   UNL     1     -12.409  -1.662   0.000  1.00  0.00    -0.454 OA
ATOM     31  C   UNL     1     -13.289  -0.447   0.000  1.00  0.00     0.468 C 
ENDBRANCH  22  23
ENDBRANCH  21  22
ENDBRANCH  20  21
ENDBRANCH  19  20
ENDBRANCH  18  19
ENDBRANCH  17  18
ENDBRANCH  16  17
ENDBRANCH   1  16
TORSDOF 15
