REMARK SMILES C/C(CCCCCCCCCCCC[C@H]1CC[C@@H](O)[C@@H](C)N1)=N\O
REMARK SMILES IDX 8 1 7 2 6 3 5 4 4 5 3 6 2 7 1 8 23 9 24 10 9 12 10 13 11 14
REMARK SMILES IDX 12 15 13 16 14 17 15 18 16 19 22 20 17 21 20 22 18 23 21 25
REMARK SMILES IDX 19 26
REMARK H PARENT 24 11 22 24 19 27
ROOT
ATOM      1  C   UNL     1      -2.584  -0.475   0.000  1.00  0.00     0.000 C 
ENDROOT
BRANCH   1   2
ATOM      2  C   UNL     1      -3.827   0.364   0.000  1.00  0.00     0.000 C 
BRANCH   2   3
ATOM      3  C   UNL     1      -5.176  -0.292   0.000  1.00  0.00     0.000 C 
BRANCH   3   4
ATOM      4  C   UNL     1      -6.418   0.547   0.000  1.00  0.00     0.000 C 
BRANCH   4   5
ATOM      5  C   UNL     1      -7.767  -0.109   0.000  1.00  0.00     0.006 C 
BRANCH   5   6
ATOM      6  C   UNL     1      -9.010   0.731   0.000  1.00  0.00     0.055 C 
BRANCH   6   7
ATOM      7  C   UNL     1     -10.359   0.074   0.000  1.00  0.00     0.054 C 
ATOM      8  C   UNL     1     -10.464  -1.422   0.000  1.00  0.00     0.065 C 
BRANCH   7   9
ATOM      9  N   UNL     1     -11.602   0.914   0.000  1.00  0.00    -0.099 NA
BRANCH   9  10
ATOM     10  O   UNL     1     -12.950   0.257   0.000  1.00  0.00    -0.411 OA
ATOM     11  H   UNL     1       0.000   0.000   0.000  1.00  0.00     0.330 HD
ENDBRANCH   9  10
ENDBRANCH   7   9
ENDBRANCH   6   7
ENDBRANCH   5   6
ENDBRANCH   4   5
ENDBRANCH   3   4
ENDBRANCH   2   3
ENDBRANCH   1   2
BRANCH   1  12
ATOM     12  C   UNL     1      -1.235   0.181   0.000  1.00  0.00     0.000 C 
BRANCH  12  13
ATOM     13  C   UNL     1       0.008  -0.658   0.000  1.00  0.00     0.000 C 
BRANCH  13  14
ATOM     14  C   UNL     1       1.356  -0.002   0.000  1.00  0.00     0.000 C 
BRANCH  14  15
ATOM     15  C   UNL     1       2.599  -0.842   0.000  1.00  0.00     0.000 C 
BRANCH  15  16
ATOM     16  C   UNL     1       3.948  -0.185   0.000  1.00  0.00     0.002 C 
BRANCH  16  17
ATOM     17  C   UNL     1       5.191  -1.025   0.000  1.00  0.00     0.019 C 
BRANCH  17  18
ATOM     18  C   UNL     1       6.540  -0.368   0.000  1.00  0.00     0.054 C 
ATOM     19  C   UNL     1       6.645   1.128   0.000  1.00  0.00     0.021 C 
ATOM     20  N   UNL     1       7.783  -1.208   0.000  1.00  0.00    -0.309 NA
ATOM     21  C   UNL     1       7.994   1.785   0.000  1.00  0.00     0.035 C 
ATOM     22  C   UNL     1       9.131  -0.551   0.000  1.00  0.00     0.079 C 
ATOM     23  C   UNL     1       9.237   0.945   0.000  1.00  0.00     0.131 C 
ATOM     24  H   UNL     1       0.000   0.000   0.000  1.00  0.00     0.123 HD
ATOM     25  C   UNL     1      10.374  -1.391   0.000  1.00  0.00     0.027 C 
BRANCH  23  26
ATOM     26  O   UNL     1      10.586   1.602   0.000  1.00  0.00    -0.392 OA
ATOM     27  H   UNL     1       0.000   0.000   0.000  1.00  0.00     0.211 HD
ENDBRANCH  23  26
ENDBRANCH  17  18
ENDBRANCH  16  17
ENDBRANCH  15  16
ENDBRANCH  14  15
ENDBRANCH  13  14
ENDBRANCH  12  13
ENDBRANCH   1  12
TORSDOF 16
