REMARK SMILES C[C@]1(C(=O)O)CCC[C@]2(C)c3cc(O)ccc3CC[C@@H]12
REMARK SMILES IDX 1 1 2 2 6 3 7 4 8 5 9 6 10 7 11 8 12 9 13 10 15 11 16 12
REMARK SMILES IDX 17 13 18 14 19 15 20 16 3 17 4 18 5 19 14 21
REMARK H PARENT 5 20 14 22
ROOT
ATOM      1  C   UNL     1      -2.658  -1.532   0.000  1.00  0.00     0.024 C 
ATOM      2  C   UNL     1      -2.452  -0.046   0.000  1.00  0.00     0.069 C 
ATOM      3  C   UNL     1      -2.766   1.421   0.000  1.00  0.00     0.019 C 
ATOM      4  C   UNL     1      -1.652   2.426   0.000  1.00  0.00     0.002 C 
ATOM      5  C   UNL     1      -0.225   1.965   0.000  1.00  0.00     0.012 C 
ATOM      6  C   UNL     1       0.089   0.498   0.000  1.00  0.00    -0.003 C 
ATOM      7  C   UNL     1       1.202   1.503   0.000  1.00  0.00     0.017 C 
ATOM      8  C   UNL     1       1.516   0.037   0.000  1.00  0.00    -0.035 A 
ATOM      9  C   UNL     1       2.629   1.042   0.000  1.00  0.00     0.050 A 
ATOM     10  C   UNL     1       4.057   0.581   0.000  1.00  0.00     0.115 A 
ATOM     11  C   UNL     1       4.371  -0.886   0.000  1.00  0.00     0.046 A 
ATOM     12  C   UNL     1       3.257  -1.892   0.000  1.00  0.00     0.008 A 
ATOM     13  C   UNL     1       1.830  -1.430   0.000  1.00  0.00    -0.044 A 
ATOM     14  C   UNL     1       0.717  -2.436   0.000  1.00  0.00     0.036 C 
ATOM     15  C   UNL     1      -0.710  -1.974   0.000  1.00  0.00     0.010 C 
ATOM     16  C   UNL     1      -1.024  -0.507   0.000  1.00  0.00     0.017 C 
ENDROOT
BRANCH   2  17
ATOM     17  C   UNL     1      -3.951  -0.100   0.000  1.00  0.00     0.309 C 
ATOM     18  O   UNL     1      -4.653  -1.426   0.000  1.00  0.00    -0.252 OA
BRANCH  17  19
ATOM     19  O   UNL     1      -4.747   1.171   0.000  1.00  0.00    -0.481 OA
ATOM     20  H   UNL     1       0.000   0.000   0.000  1.00  0.00     0.296 HD
ENDBRANCH  17  19
ENDBRANCH   2  17
BRANCH  10  21
ATOM     21  O   UNL     1       5.170   1.586   0.000  1.00  0.00    -0.508 OA
ATOM     22  H   UNL     1       0.000   0.000   0.000  1.00  0.00     0.293 HD
ENDBRANCH  10  21
TORSDOF 3
