REMARK SMILES COC(=O)C[C@H]1C(C)(C)C(=O)C=C2O[C@@]3(C)C(=C[C@H](O)[C@]4(C)C3=CC(=O)O[C@H]4c3ccoc3)[C@@]21C
REMARK SMILES IDX 5 1 3 2 4 3 2 4 1 5 6 6 7 7 34 8 10 9 17 10 13 11 12 12
REMARK SMILES IDX 15 13 18 14 14 15 23 16 19 17 21 18 24 19 28 20 25 21 27 22
REMARK SMILES IDX 8 23 9 24 35 25 11 26 16 27 22 28 26 29 20 30 29 32 33 33
REMARK SMILES IDX 30 34 32 35 31 36
REMARK H PARENT 20 31
ROOT
ATOM      1  C   UNL     1      -3.052   1.545   0.000  1.00  0.00     0.128 C 
ENDROOT
BRANCH   1   2
ATOM      2  C   UNL     1      -4.312   2.358   0.000  1.00  0.00     0.305 C 
ATOM      3  O   UNL     1      -5.647   1.673   0.000  1.00  0.00    -0.252 OA
BRANCH   2   4
ATOM      4  O   UNL     1      -4.238   3.856   0.000  1.00  0.00    -0.469 OA
ATOM      5  C   UNL     1      -5.498   4.670   0.000  1.00  0.00     0.282 C 
ENDBRANCH   2   4
ENDBRANCH   1   2
BRANCH   1   6
ATOM      6  C   UNL     1      -3.126   0.046   0.000  1.00  0.00     0.031 C 
ATOM      7  C   UNL     1      -4.461  -0.638   0.000  1.00  0.00     0.032 C 
ATOM      8  C   UNL     1      -1.866  -0.767   0.000  1.00  0.00     0.055 C 
ATOM      9  C   UNL     1      -4.535  -2.136   0.000  1.00  0.00     0.164 C 
ATOM     10  C   UNL     1      -0.418  -0.375   0.000  1.00  0.00    -0.011 C 
ATOM     11  C   UNL     1      -1.940  -2.265   0.000  1.00  0.00     0.112 C 
ATOM     12  C   UNL     1      -3.275  -2.950   0.000  1.00  0.00     0.090 C 
ATOM     13  C   UNL     1       0.402  -1.630   0.000  1.00  0.00     0.150 C 
ATOM     14  C   UNL     1       0.259   0.964   0.000  1.00  0.00     0.010 C 
ATOM     15  O   UNL     1      -0.538  -2.799   0.000  1.00  0.00    -0.482 OA
ATOM     16  C   UNL     1       1.900  -1.548   0.000  1.00  0.00    -0.003 C 
ATOM     17  C   UNL     1       1.757   1.047   0.000  1.00  0.00     0.151 C 
ATOM     18  C   UNL     1       2.577  -0.209   0.000  1.00  0.00     0.064 C 
ATOM     19  C   UNL     1       2.721  -2.803   0.000  1.00  0.00     0.098 C 
ATOM     20  C   UNL     1       4.075  -0.126   0.000  1.00  0.00     0.223 C 
ATOM     21  C   UNL     1       4.218  -2.721   0.000  1.00  0.00     0.331 C 
ATOM     22  O   UNL     1       4.896  -1.382   0.000  1.00  0.00    -0.453 OA
ATOM     23  C   UNL     1      -4.903   0.795   0.000  1.00  0.00     0.020 C 
ATOM     24  C   UNL     1      -5.949  -0.825   0.000  1.00  0.00     0.020 C 
ATOM     25  C   UNL     1      -1.635   0.715   0.000  1.00  0.00     0.025 C 
ATOM     26  O   UNL     1      -5.870  -2.821   0.000  1.00  0.00    -0.294 OA
ATOM     27  C   UNL     1       1.087  -2.965   0.000  1.00  0.00     0.067 C 
ATOM     28  C   UNL     1       3.255   1.129   0.000  1.00  0.00     0.024 C 
ATOM     29  O   UNL     1       5.039  -3.976   0.000  1.00  0.00    -0.247 OA
BRANCH  17  30
ATOM     30  O   UNL     1       2.434   2.385   0.000  1.00  0.00    -0.388 OA
ATOM     31  H   UNL     1       0.000   0.000   0.000  1.00  0.00     0.211 HD
ENDBRANCH  17  30
BRANCH  20  32
ATOM     32  C   UNL     1       4.752   1.212   0.000  1.00  0.00     0.032 A 
ATOM     33  C   UNL     1       4.068   2.547   0.000  1.00  0.00     0.202 A 
ATOM     34  C   UNL     1       6.233   1.451   0.000  1.00  0.00     0.049 A 
ATOM     35  O   UNL     1       5.125   3.610   0.000  1.00  0.00    -0.472 OA
ATOM     36  C   UNL     1       6.464   2.933   0.000  1.00  0.00     0.195 A 
ENDBRANCH  20  32
ENDBRANCH   1   6
TORSDOF 5
