REMARK SMILES C[C@H]1CC[C@@H](C(C)(C)O)CC2=C1CC[C@@H]2C
REMARK SMILES IDX 10 1 11 2 12 3 13 4 15 5 14 6 16 7 2 8 1 9 5 11 4 12 3 13
REMARK SMILES IDX 6 15 7 16 8 17 9 18
REMARK H PARENT 9 19
REMARK Flexibility Score:    8.900
ROOT
ATOM      1  C   UNL     1       0.475   0.897   0.000  1.00  0.00     0.037 C 
ENDROOT
BRANCH   1   2
ATOM      2  C   UNL     1      -1.015   0.724   0.000  1.00  0.00    -0.068 C 
ATOM      3  C   UNL     1      -1.808  -0.549   0.000  1.00  0.00    -0.068 C 
ATOM      4  C   UNL     1      -3.264  -0.187   0.000  1.00  0.00     0.032 C 
ATOM      5  C   UNL     1      -1.980   1.872   0.000  1.00  0.00     0.012 C 
ATOM      6  C   UNL     1      -3.370   1.309   0.000  1.00  0.00     0.012 C 
ATOM      7  C   UNL     1      -1.618   3.328   0.000  1.00  0.00     0.012 C 
BRANCH   3   8
ATOM      8  C   UNL     1      -1.308  -1.963   0.000  1.00  0.00     0.012 CG0
ATOM      9  C   UNL     1      -2.365  -3.027   0.000  1.00  0.00     0.012 C 
ATOM     10  G   UNL     1       0.109  -2.454   0.000  1.00  0.00     0.000 G0
ENDBRANCH   3   8
ENDBRANCH   1   2
BRANCH   1  11
ATOM     11  C   UNL     1       1.540  -0.160   0.000  1.00  0.00     0.024 C 
BRANCH  11  12
ATOM     12  C   UNL     1       1.377  -1.651   0.000  1.00  0.00     0.007 C 
BRANCH  12  13
ATOM     13  C   UNL     1       0.109  -2.454   0.000  1.00  0.00     0.008 CG0
ATOM     14  G   UNL     1      -1.308  -1.963   0.000  1.00  0.00     0.000 G0
ENDBRANCH  12  13
ENDBRANCH  11  12
BRANCH  11  15
ATOM     15  C   UNL     1       2.954   0.340   0.000  1.00  0.00     0.062 C 
ATOM     16  C   UNL     1       2.454   1.754   0.000  1.00  0.00     0.042 C 
ATOM     17  C   UNL     1       3.454  -1.074   0.000  1.00  0.00     0.042 C 
BRANCH  15  18
ATOM     18  O   UNL     1       4.368   0.840   0.000  1.00  0.00    -0.390 OA
ATOM     19  H   UNL     1       0.000   0.000   0.000  1.00  0.00     0.211 HD
ENDBRANCH  15  18
ENDBRANCH  11  15
ENDBRANCH   1  11
TORSDOF 2
