REMARK SMILES O=C(NCCc1ccc(O)cc1)c1ccccc1
REMARK SMILES IDX 5 1 4 2 3 3 2 4 1 5 13 7 14 8 18 9 15 10 17 11 16 12 6 13
REMARK SMILES IDX 7 14 12 15 8 16 11 17 9 18 10 19
REMARK H PARENT 3 6 10 20
ROOT
ATOM      1  C   UNL     1       1.464  -1.002   0.000  1.00  0.00     0.057 C 
ENDROOT
BRANCH   1   2
ATOM      2  C   UNL     1       0.380   0.036   0.000  1.00  0.00     0.121 C 
BRANCH   2   3
ATOM      3  N   UNL     1      -1.060  -0.384   0.000  1.00  0.00    -0.352 N 
ATOM      4  C   UNL     1      -2.143   0.654   0.000  1.00  0.00     0.251 C 
ATOM      5  O   UNL     1      -1.786   2.111   0.000  1.00  0.00    -0.269 OA
ATOM      6  H   UNL     1       0.000   0.000   0.000  1.00  0.00     0.163 HD
BRANCH   4   7
ATOM      7  C   UNL     1      -3.583   0.234   0.000  1.00  0.00     0.039 A 
ATOM      8  C   UNL     1      -4.667   1.272   0.000  1.00  0.00     0.014 A 
ATOM      9  C   UNL     1      -3.940  -1.223   0.000  1.00  0.00     0.014 A 
ATOM     10  C   UNL     1      -6.107   0.852   0.000  1.00  0.00     0.001 A 
ATOM     11  C   UNL     1      -5.380  -1.642   0.000  1.00  0.00     0.001 A 
ATOM     12  C   UNL     1      -6.464  -0.605   0.000  1.00  0.00     0.000 A 
ENDBRANCH   4   7
ENDBRANCH   2   3
ENDBRANCH   1   2
BRANCH   1  13
ATOM     13  C   UNL     1       2.904  -0.583   0.000  1.00  0.00    -0.046 A 
ATOM     14  C   UNL     1       3.987  -1.620   0.000  1.00  0.00     0.007 A 
ATOM     15  C   UNL     1       3.260   0.875   0.000  1.00  0.00     0.007 A 
ATOM     16  C   UNL     1       5.427  -1.200   0.000  1.00  0.00     0.046 A 
ATOM     17  C   UNL     1       4.701   1.294   0.000  1.00  0.00     0.046 A 
ATOM     18  C   UNL     1       5.784   0.256   0.000  1.00  0.00     0.115 A 
BRANCH  18  19
ATOM     19  O   UNL     1       7.224   0.676   0.000  1.00  0.00    -0.508 OA
ATOM     20  H   UNL     1       0.000   0.000   0.000  1.00  0.00     0.293 HD
ENDBRANCH  18  19
ENDBRANCH   1  13
TORSDOF 5
