REMARK SMILES C=CC[C@@]1(OC)C=C2C(=CC1=O)O[C@H](c1cc(OC)c3c(c1)OCO3)[C@H]2C
REMARK SMILES IDX 4 1 7 2 8 3 9 4 10 5 11 6 12 7 13 8 14 9 26 10 27 11 3 12
REMARK SMILES IDX 2 13 1 14 5 15 6 16 15 17 16 18 22 19 17 20 21 21 20 22
REMARK SMILES IDX 23 23 25 24 24 25 18 26 19 27
REMARK H PARENT
ROOT
ATOM      1  C   UNL     1       4.200   0.020   0.000  1.00  0.00     0.152 C 
ATOM      2  C   UNL     1       2.962  -0.828   0.000  1.00  0.00     0.024 C 
ATOM      3  C   UNL     1       1.609  -0.180   0.000  1.00  0.00     0.000 C 
ATOM      4  C   UNL     1       1.494   1.316   0.000  1.00  0.00     0.127 C 
ATOM      5  C   UNL     1       2.732   2.163   0.000  1.00  0.00     0.097 C 
ATOM      6  C   UNL     1       4.085   1.515   0.000  1.00  0.00     0.195 C 
ATOM      7  O   UNL     1       5.323   2.363   0.000  1.00  0.00    -0.291 OA
ATOM      8  O   UNL     1       0.036   1.669   0.000  1.00  0.00    -0.485 OA
ATOM      9  C   UNL     1      -0.750   0.391   0.000  1.00  0.00     0.211 C 
ATOM     10  C   UNL     1       0.223  -0.751   0.000  1.00  0.00     0.065 C 
ATOM     11  C   UNL     1      -0.130  -2.209   0.000  1.00  0.00     0.017 C 
ENDROOT
BRANCH   1  12
ATOM     12  C   UNL     1       5.653   0.393   0.000  1.00  0.00     0.075 C 
BRANCH  12  13
ATOM     13  C   UNL     1       6.702  -0.679   0.000  1.00  0.00    -0.031 C 
ATOM     14  C   UNL     1       8.155  -0.306   0.000  1.00  0.00     0.004 C 
ENDBRANCH  12  13
ENDBRANCH   1  12
BRANCH   1  15
ATOM     15  O   UNL     1       4.820  -1.346   0.000  1.00  0.00    -0.366 OA
ATOM     16  C   UNL     1       3.946  -2.566   0.000  1.00  0.00     0.196 C 
ENDBRANCH   1  15
BRANCH   9  17
ATOM     17  C   UNL     1      -2.245   0.276   0.000  1.00  0.00     0.001 A 
ATOM     18  C   UNL     1      -2.893  -1.077   0.000  1.00  0.00     0.058 A 
ATOM     19  C   UNL     1      -3.092   1.514   0.000  1.00  0.00     0.058 A 
ATOM     20  C   UNL     1      -4.389  -1.192   0.000  1.00  0.00     0.165 A 
ATOM     21  C   UNL     1      -4.588   1.399   0.000  1.00  0.00     0.170 A 
ATOM     22  C   UNL     1      -5.236   0.046   0.000  1.00  0.00     0.207 A 
ATOM     23  O   UNL     1      -5.674   2.433   0.000  1.00  0.00    -0.453 OA
ATOM     24  O   UNL     1      -6.723   0.244   0.000  1.00  0.00    -0.450 OA
ATOM     25  C   UNL     1      -6.994   1.720   0.000  1.00  0.00     0.468 C 
BRANCH  20  26
ATOM     26  O   UNL     1      -5.037  -2.545   0.000  1.00  0.00    -0.493 OA
ATOM     27  C   UNL     1      -4.189  -3.782   0.000  1.00  0.00     0.278 C 
ENDBRANCH  20  26
ENDBRANCH   9  17
TORSDOF 5
