REMARK SMILES COc1cc([C@@H]2O[C@@H](c3cc(OC)c(OC)c(OC)c3)[C@H](C)[C@H]2C)cc(OC)c1OC
REMARK SMILES IDX 6 1 7 2 8 3 21 4 22 5 23 6 24 7 5 8 3 9 29 10 4 11 26 12
REMARK SMILES IDX 25 13 2 14 1 15 30 16 31 17 27 18 28 19 9 20 10 21 20 22
REMARK SMILES IDX 11 23 17 24 14 25 12 26 13 27 18 28 19 29 15 30 16 31
REMARK H PARENT
ROOT
ATOM      1  C   UNL     1      -1.143  -0.870   0.000  1.00  0.00     0.152 C 
ATOM      2  O   UNL     1       0.056   0.033   0.000  1.00  0.00    -0.365 OA
ATOM      3  C   UNL     1       1.284  -0.828   0.000  1.00  0.00     0.152 C 
ATOM      4  C   UNL     1       0.845  -2.263   0.000  1.00  0.00     0.025 C 
ATOM      5  C   UNL     1       1.747  -3.461   0.000  1.00  0.00     0.011 C 
ATOM      6  C   UNL     1      -0.655  -2.288   0.000  1.00  0.00     0.025 C 
ATOM      7  C   UNL     1      -1.516  -3.516   0.000  1.00  0.00     0.011 C 
ENDROOT
BRANCH   1   8
ATOM      8  C   UNL     1      -2.577  -0.430   0.000  1.00  0.00    -0.011 A 
ATOM      9  C   UNL     1      -5.109  -1.014   0.000  1.00  0.00     0.165 A 
ATOM     10  C   UNL     1      -5.446   0.448   0.000  1.00  0.00     0.203 A 
ATOM     11  C   UNL     1      -3.675  -1.453   0.000  1.00  0.00     0.057 A 
ATOM     12  C   UNL     1      -4.348   1.471   0.000  1.00  0.00     0.165 A 
ATOM     13  C   UNL     1      -2.914   1.031   0.000  1.00  0.00     0.057 A 
BRANCH   9  14
ATOM     14  O   UNL     1      -6.206  -2.036   0.000  1.00  0.00    -0.493 OA
ATOM     15  C   UNL     1      -7.641  -1.597   0.000  1.00  0.00     0.278 C 
ENDBRANCH   9  14
BRANCH  10  16
ATOM     16  O   UNL     1      -6.880   0.887   0.000  1.00  0.00    -0.490 OA
ATOM     17  C   UNL     1      -7.217   2.349   0.000  1.00  0.00     0.278 C 
ENDBRANCH  10  16
BRANCH  12  18
ATOM     18  O   UNL     1      -4.685   2.932   0.000  1.00  0.00    -0.493 OA
ATOM     19  C   UNL     1      -3.587   3.955   0.000  1.00  0.00     0.278 C 
ENDBRANCH  12  18
ENDBRANCH   1   8
BRANCH   3  20
ATOM     20  C   UNL     1       2.702  -0.341   0.000  1.00  0.00    -0.011 A 
ATOM     21  C   UNL     1       3.834  -1.325   0.000  1.00  0.00     0.057 A 
ATOM     22  C   UNL     1       2.989   1.132   0.000  1.00  0.00     0.057 A 
ATOM     23  C   UNL     1       5.253  -0.838   0.000  1.00  0.00     0.165 A 
ATOM     24  C   UNL     1       4.408   1.619   0.000  1.00  0.00     0.165 A 
ATOM     25  C   UNL     1       5.539   0.635   0.000  1.00  0.00     0.203 A 
BRANCH  23  26
ATOM     26  O   UNL     1       6.384  -1.822   0.000  1.00  0.00    -0.493 OA
ATOM     27  C   UNL     1       6.097  -3.295   0.000  1.00  0.00     0.278 C 
ENDBRANCH  23  26
BRANCH  24  28
ATOM     28  O   UNL     1       4.695   3.091   0.000  1.00  0.00    -0.493 OA
ATOM     29  C   UNL     1       3.563   4.076   0.000  1.00  0.00     0.278 C 
ENDBRANCH  24  28
BRANCH  25  30
ATOM     30  O   UNL     1       6.958   1.122   0.000  1.00  0.00    -0.490 OA
ATOM     31  C   UNL     1       7.245   2.595   0.000  1.00  0.00     0.278 C 
ENDBRANCH  25  30
ENDBRANCH   3  20
TORSDOF 8
