REMARK SMILES COc1cc2oc(=O)ccc2cc1CC=C(C)C
REMARK SMILES IDX 14 1 13 2 3 3 4 4 5 5 12 6 11 7 6 8 10 9 7 10 9 11 8 12 2 13
REMARK SMILES IDX 1 14 15 15 16 16 17 17 18 18
REMARK H PARENT
ROOT
ATOM      1  C   UNL     1      -2.240  -1.036   0.000  1.00  0.00     0.066 C 
ENDROOT
BRANCH   1   2
ATOM      2  C   UNL     1      -0.828  -0.528   0.000  1.00  0.00    -0.001 A 
ATOM      3  C   UNL     1      -0.563   0.948   0.000  1.00  0.00     0.126 A 
ATOM      4  C   UNL     1       0.849   1.456   0.000  1.00  0.00     0.094 A 
ATOM      5  C   UNL     1       1.994   0.488   0.000  1.00  0.00     0.142 A 
ATOM      6  C   UNL     1       0.317  -1.497   0.000  1.00  0.00     0.019 A 
ATOM      7  C   UNL     1       1.728  -0.989   0.000  1.00  0.00     0.018 A 
ATOM      8  O   UNL     1       3.406   0.996   0.000  1.00  0.00    -0.423 OA
ATOM      9  C   UNL     1       2.874  -1.957   0.000  1.00  0.00     0.019 A 
ATOM     10  C   UNL     1       4.551   0.027   0.000  1.00  0.00     0.336 A 
ATOM     11  C   UNL     1       4.285  -1.449   0.000  1.00  0.00     0.094 A 
ATOM     12  O   UNL     1       5.963   0.535   0.000  1.00  0.00    -0.246 OA
BRANCH   3  13
ATOM     13  O   UNL     1      -1.708   1.916   0.000  1.00  0.00    -0.496 OA
ATOM     14  C   UNL     1      -1.442   3.393   0.000  1.00  0.00     0.278 C 
ENDBRANCH   3  13
ENDBRANCH   1   2
BRANCH   1  15
ATOM     15  C   UNL     1      -3.385  -0.068   0.000  1.00  0.00    -0.023 C 
BRANCH  15  16
ATOM     16  C   UNL     1      -4.797  -0.576   0.000  1.00  0.00    -0.080 C 
ATOM     17  C   UNL     1      -5.942   0.393   0.000  1.00  0.00     0.039 C 
ATOM     18  C   UNL     1      -5.063  -2.052   0.000  1.00  0.00     0.039 C 
ENDBRANCH  15  16
ENDBRANCH   1  15
TORSDOF 4
