REMARK SMILES CC(=O)Oc1c(C(C)C)cc2c(c1OC(C)=O)CC1=CCCC(C)(C)[C@@H]1CC2
REMARK SMILES IDX 5 1 6 2 10 3 11 4 12 5 13 6 4 7 2 8 1 9 3 10 7 11 8 12 9 13
REMARK SMILES IDX 14 14 15 15 16 16 17 17 18 18 19 19 26 20 20 21 23 22 21 23
REMARK SMILES IDX 22 24 24 25 25 26 28 28 27 29
REMARK H PARENT
REMARK Flexibility Score:   23.900
ROOT
ATOM      1  C   UNL     1      -2.722   0.344   0.000  1.00  0.00     0.177 A 
ATOM      2  C   UNL     1      -2.623   1.841   0.000  1.00  0.00     0.002 A 
ATOM      3  C   UNL     1      -1.276   2.503   0.000  1.00  0.00     0.012 A 
ATOM      4  C   UNL     1      -0.030   1.668   0.000  1.00  0.00    -0.040 A 
ATOM      5  C   UNL     1      -0.130   0.171   0.000  1.00  0.00     0.006 A 
ATOM      6  C   UNL     1      -1.476  -0.491   0.000  1.00  0.00     0.177 A 
ENDROOT
BRANCH   1   7
ATOM      7  O   UNL     1      -4.069  -0.318   0.000  1.00  0.00    -0.422 OA
BRANCH   7   8
ATOM      8  C   UNL     1      -4.168  -1.815   0.000  1.00  0.00     0.308 C 
ATOM      9  C   UNL     1      -5.514  -2.476   0.000  1.00  0.00     0.139 C 
ATOM     10  O   UNL     1      -2.922  -2.649   0.000  1.00  0.00    -0.252 OA
ENDBRANCH   7   8
ENDBRANCH   1   7
BRANCH   2  11
ATOM     11  C   UNL     1      -3.869   2.676   0.000  1.00  0.00     0.017 C 
ATOM     12  C   UNL     1      -3.769   4.172   0.000  1.00  0.00     0.012 C 
ATOM     13  C   UNL     1      -5.215   2.014   0.000  1.00  0.00     0.012 C 
ENDBRANCH   2  11
BRANCH   6  14
ATOM     14  O   UNL     1      -1.576  -1.987   0.000  1.00  0.00    -0.422 OA
BRANCH  14  15
ATOM     15  C   UNL     1      -0.330  -2.822   0.000  1.00  0.00     0.308 C 
ATOM     16  C   UNL     1      -0.430  -4.319   0.000  1.00  0.00     0.139 C 
ATOM     17  O   UNL     1       1.016  -2.160   0.000  1.00  0.00    -0.252 OA
ENDBRANCH  14  15
ENDBRANCH   6  14
BRANCH   5  18
ATOM     18  C   UNL     1       0.978  -0.840   0.000  1.00  0.00     0.070 C 
BRANCH  18  19
ATOM     19  C   UNL     1       2.459  -0.604   0.000  1.00  0.00    -0.066 C 
ATOM     20  C   UNL     1       3.199   0.701   0.000  1.00  0.00     0.021 CG0
ATOM     21  C   UNL     1       3.220  -1.897   0.000  1.00  0.00    -0.027 C 
ATOM     22  C   UNL     1       4.698   0.713   0.000  1.00  0.00    -0.029 C 
ATOM     23  C   UNL     1       4.720  -1.885   0.000  1.00  0.00     0.028 C 
ATOM     24  C   UNL     1       5.459  -0.580   0.000  1.00  0.00     0.011 C 
ATOM     25  C   UNL     1       4.426   2.188   0.000  1.00  0.00     0.012 C 
ATOM     26  C   UNL     1       6.104   1.238   0.000  1.00  0.00     0.012 C 
ATOM     27  G   UNL     1       2.639   2.093   0.000  1.00  0.00     0.000 G0
ENDBRANCH  18  19
ENDBRANCH   5  18
BRANCH   4  28
ATOM     28  C   UNL     1       1.202   2.523   0.000  1.00  0.00     0.036 C 
BRANCH  28  29
ATOM     29  C   UNL     1       2.639   2.093   0.000  1.00  0.00     0.013 CG0
ATOM     30  G   UNL     1       3.199   0.701   0.000  1.00  0.00     0.000 G0
ENDBRANCH  28  29
ENDBRANCH   4  28
TORSDOF 5
