REMARK SMILES C=C(C)[C@H]1CC[C@]2(C)CCC=C(C)[C@H]2C1
REMARK SMILES IDX 4 1 5 2 6 3 7 4 8 5 9 6 10 7 11 8 12 9 13 10 14 11 15 12
REMARK SMILES IDX 2 13 1 14 3 15
REMARK H PARENT
ROOT
ATOM      1  C   UNL     1      -1.849   0.105   0.000  1.00  0.00     0.015 C 
ATOM      2  C   UNL     1      -1.483   1.559   0.000  1.00  0.00     0.008 C 
ATOM      3  C   UNL     1      -0.040   1.969   0.000  1.00  0.00     0.008 C 
ATOM      4  C   UNL     1       1.037   0.925   0.000  1.00  0.00    -0.026 C 
ATOM      5  C   UNL     1       1.403   2.380   0.000  1.00  0.00     0.012 C 
ATOM      6  C   UNL     1       2.479   1.335   0.000  1.00  0.00     0.011 C 
ATOM      7  C   UNL     1       3.556   0.291   0.000  1.00  0.00     0.028 C 
ATOM      8  C   UNL     1       3.190  -1.164   0.000  1.00  0.00    -0.028 C 
ATOM      9  C   UNL     1       1.747  -1.574   0.000  1.00  0.00    -0.074 C 
ATOM     10  C   UNL     1       1.381  -3.029   0.000  1.00  0.00     0.039 C 
ATOM     11  C   UNL     1       0.670  -0.530   0.000  1.00  0.00     0.021 C 
ATOM     12  C   UNL     1      -0.772  -0.940   0.000  1.00  0.00     0.016 C 
ENDROOT
BRANCH   1  13
ATOM     13  C   UNL     1      -3.292  -0.306   0.000  1.00  0.00    -0.077 C 
ATOM     14  C   UNL     1      -3.658  -1.760   0.000  1.00  0.00     0.008 C 
ATOM     15  C   UNL     1      -4.369   0.739   0.000  1.00  0.00     0.039 C 
ENDBRANCH   1  13
TORSDOF 1
