REMARK SMILES COc1ccc2c(=O)cc(-c3ccccc3)oc2c1
REMARK SMILES IDX 3 1 4 2 5 3 6 4 7 5 8 6 9 7 10 8 17 9 18 10 19 11 2 12 1 13
REMARK SMILES IDX 11 14 12 15 16 16 13 17 15 18 14 19
REMARK H PARENT
ROOT
ATOM      1  C   UNL     1      -3.710  -0.949   0.000  1.00  0.00     0.122 A 
ATOM      2  C   UNL     1      -4.052   0.511   0.000  1.00  0.00     0.047 A 
ATOM      3  C   UNL     1      -2.958   1.537   0.000  1.00  0.00     0.020 A 
ATOM      4  C   UNL     1      -1.522   1.103   0.000  1.00  0.00     0.065 A 
ATOM      5  C   UNL     1      -0.428   2.130   0.000  1.00  0.00     0.193 A 
ATOM      6  O   UNL     1      -0.770   3.590   0.000  1.00  0.00    -0.289 OA
ATOM      7  C   UNL     1       1.008   1.695   0.000  1.00  0.00     0.100 A 
ATOM      8  C   UNL     1       1.349   0.235   0.000  1.00  0.00     0.138 A 
ATOM      9  O   UNL     1       0.256  -0.792   0.000  1.00  0.00    -0.456 OA
ATOM     10  C   UNL     1      -1.180  -0.357   0.000  1.00  0.00     0.142 A 
ATOM     11  C   UNL     1      -2.274  -1.384   0.000  1.00  0.00     0.094 A 
ENDROOT
BRANCH   1  12
ATOM     12  O   UNL     1      -4.804  -1.976   0.000  1.00  0.00    -0.497 OA
ATOM     13  C   UNL     1      -6.240  -1.542   0.000  1.00  0.00     0.278 C 
ENDBRANCH   1  12
BRANCH   8  14
ATOM     14  C   UNL     1       2.785  -0.200   0.000  1.00  0.00     0.017 A 
ATOM     15  C   UNL     1       3.127  -1.660   0.000  1.00  0.00     0.012 A 
ATOM     16  C   UNL     1       3.879   0.827   0.000  1.00  0.00     0.012 A 
ATOM     17  C   UNL     1       4.563  -2.094   0.000  1.00  0.00     0.001 A 
ATOM     18  C   UNL     1       5.315   0.393   0.000  1.00  0.00     0.001 A 
ATOM     19  C   UNL     1       5.657  -1.068   0.000  1.00  0.00     0.000 A 
ENDBRANCH   8  14
TORSDOF 2
