REMARK SMILES CC1(C)C(=O)C[C@@H]2O[C@@H]3C[C@@]4(C)[C@H](c5ccoc5)C[C@H]5O[C@]54[C@]4(C)OC(=O)CC1[C@@]2(C)C34
REMARK SMILES IDX 25 1 23 2 2 3 4 4 29 5 6 6 30 7 7 8 32 9 8 10 9 11 10 12
REMARK SMILES IDX 22 13 11 14 21 15 20 16 13 17 19 18 1 19 3 20 5 21 31 22
REMARK SMILES IDX 24 23 12 24 28 25 14 27 18 28 15 29 17 30 16 31 26 32 27 33
REMARK H PARENT
REMARK Flexibility Score:   31.900
ROOT
ATOM      1  O   UNL     1      -0.745  -2.454   0.000  1.00  0.00    -0.456 OA
ENDROOT
BRANCH   1   2
ATOM      2  C   UNL     1       0.006  -1.155   0.000  1.00  0.00     0.147 C 
ATOM      3  C   UNL     1      -4.655   0.611   0.000  1.00  0.00     0.027 C 
ATOM      4  C   UNL     1      -4.678   2.111   0.000  1.00  0.00     0.141 C 
ATOM      5  C   UNL     1      -3.345  -0.120   0.000  1.00  0.00     0.022 C 
ATOM      6  C   UNL     1      -3.390   2.880   0.000  1.00  0.00     0.108 C 
ATOM      7  C   UNL     1      -2.058   0.649   0.000  1.00  0.00     0.008 C 
ATOM      8  C   UNL     1      -2.080   2.149   0.000  1.00  0.00     0.132 C 
ATOM      9  C   UNL     1      -0.624   0.206   0.000  1.00  0.00     0.074 C 
ATOM     10  O   UNL     1      -0.660   2.633   0.000  1.00  0.00    -0.373 OA
ATOM     11  C   UNL     1       0.239   1.433   0.000  1.00  0.00     0.127 C 
ATOM     12  C   UNL     1       1.733   1.298   0.000  1.00  0.00     0.043 C 
ATOM     13  C   UNL     1       1.500  -1.290   0.000  1.00  0.00     0.140 C 
ATOM     14  C   UNL     1       2.363  -0.063   0.000  1.00  0.00     0.013 C 
ATOM     15  O   UNL     1       0.910  -2.669   0.000  1.00  0.00    -0.361 OA
ATOM     16  C   UNL     1       2.399  -2.490   0.000  1.00  0.00     0.156 C 
ATOM     17  C   UNL     1       3.797  -0.506   0.000  1.00  0.00     0.034 C 
ATOM     18  C   UNL     1       3.819  -2.006   0.000  1.00  0.00     0.044 C 
ATOM     19  C   UNL     1      -5.148  -0.806   0.000  1.00  0.00     0.020 C 
ATOM     20  C   UNL     1      -6.136   0.849   0.000  1.00  0.00     0.020 C 
ATOM     21  O   UNL     1      -5.987   2.841   0.000  1.00  0.00    -0.299 OA
ATOM     22  C   UNL     1      -1.879  -0.841   0.000  1.00  0.00     0.015 C 
ATOM     23  C   UNL     1      -0.597  -1.676   0.000  1.00  0.00     0.060 C 
ATOM     24  C   UNL     1       3.351   1.066   0.000  1.00  0.00     0.015 C 
BRANCH   5  25
ATOM     25  C   UNL     1      -3.327  -1.656   0.000  1.00  0.00     0.128 CG0
ATOM     26  G   UNL     1      -2.228  -2.677   0.000  1.00  0.00     0.000 G0
ENDBRANCH   5  25
BRANCH  17  27
ATOM     27  C   UNL     1       4.997   0.394   0.000  1.00  0.00    -0.006 A 
ATOM     28  C   UNL     1       4.975   1.893   0.000  1.00  0.00     0.198 A 
ATOM     29  C   UNL     1       6.430  -0.049   0.000  1.00  0.00     0.046 A 
ATOM     30  O   UNL     1       6.395   2.378   0.000  1.00  0.00    -0.472 OA
ATOM     31  C   UNL     1       7.294   1.177   0.000  1.00  0.00     0.195 A 
ENDBRANCH  17  27
ENDBRANCH   1   2
BRANCH   1  32
ATOM     32  C   UNL     1      -2.228  -2.677   0.000  1.00  0.00     0.306 CG0
ATOM     33  O   UNL     1      -2.670  -4.110   0.000  1.00  0.00    -0.252 OA
ATOM     34  G   UNL     1      -3.327  -1.656   0.000  1.00  0.00     0.000 G0
ENDBRANCH   1  32
TORSDOF 1
