REMARK SMILES COc1ccc2c(c1OC)[C@@H](CC(C)=O)N(C)c1c-2ccc2cc3c(cc12)OCO3
REMARK SMILES IDX 3 1 4 2 5 3 6 4 19 5 18 6 27 7 26 8 25 9 24 10 23 11 22 12
REMARK SMILES IDX 21 13 20 14 30 15 29 16 28 17 16 18 17 19 11 20 7 21 8 22
REMARK SMILES IDX 2 23 1 24 9 25 10 26 12 27 13 28 14 29 15 30
REMARK H PARENT
ROOT
ATOM      1  C   UNL     1       4.558  -1.148   0.000  1.00  0.00     0.161 A 
ATOM      2  C   UNL     1       3.950  -2.519   0.000  1.00  0.00     0.051 A 
ATOM      3  C   UNL     1       2.458  -2.677   0.000  1.00  0.00     0.013 A 
ATOM      4  C   UNL     1       1.575  -1.465   0.000  1.00  0.00    -0.007 A 
ATOM      5  C   UNL     1       0.084  -1.623   0.000  1.00  0.00     0.006 A 
ATOM      6  C   UNL     1      -0.799  -0.411   0.000  1.00  0.00     0.053 A 
ATOM      7  C   UNL     1      -2.291  -0.570   0.000  1.00  0.00     0.010 A 
ATOM      8  C   UNL     1      -3.174   0.643   0.000  1.00  0.00     0.061 A 
ATOM      9  C   UNL     1      -4.666   0.484   0.000  1.00  0.00     0.166 A 
ATOM     10  C   UNL     1      -5.274  -0.887   0.000  1.00  0.00     0.166 A 
ATOM     11  C   UNL     1      -4.391  -2.099   0.000  1.00  0.00     0.059 A 
ATOM     12  C   UNL     1      -2.900  -1.941   0.000  1.00  0.00    -0.012 A 
ATOM     13  C   UNL     1      -2.017  -3.153   0.000  1.00  0.00     0.009 A 
ATOM     14  C   UNL     1      -0.525  -2.994   0.000  1.00  0.00     0.011 A 
ATOM     15  O   UNL     1      -6.766  -0.732   0.000  1.00  0.00    -0.454 OA
ATOM     16  C   UNL     1      -7.080   0.735   0.000  1.00  0.00     0.468 C 
ATOM     17  O   UNL     1      -5.782   1.487   0.000  1.00  0.00    -0.454 OA
ATOM     18  N   UNL     1      -0.191   0.960   0.000  1.00  0.00    -0.366 N 
ATOM     19  C   UNL     1      -1.074   2.172   0.000  1.00  0.00     0.144 C 
ATOM     20  C   UNL     1       1.300   1.119   0.000  1.00  0.00     0.124 C 
ATOM     21  C   UNL     1       2.184  -0.094   0.000  1.00  0.00     0.029 A 
ATOM     22  C   UNL     1       3.675   0.065   0.000  1.00  0.00     0.166 A 
ENDROOT
BRANCH   1  23
ATOM     23  O   UNL     1       6.050  -0.989   0.000  1.00  0.00    -0.493 OA
ATOM     24  C   UNL     1       6.933  -2.202   0.000  1.00  0.00     0.278 C 
ENDBRANCH   1  23
BRANCH  22  25
ATOM     25  O   UNL     1       4.284   1.436   0.000  1.00  0.00    -0.492 OA
ATOM     26  C   UNL     1       5.775   1.594   0.000  1.00  0.00     0.278 C 
ENDBRANCH  22  25
BRANCH  20  27
ATOM     27  C   UNL     1       1.909   2.490   0.000  1.00  0.00     0.105 C 
BRANCH  27  28
ATOM     28  C   UNL     1       1.026   3.702   0.000  1.00  0.00     0.132 C 
ATOM     29  C   UNL     1       1.634   5.073   0.000  1.00  0.00     0.087 C 
ATOM     30  O   UNL     1      -0.466   3.544   0.000  1.00  0.00    -0.300 OA
ENDBRANCH  27  28
ENDBRANCH  20  27
TORSDOF 4
