REMARK SMILES C=C(C)[C@@H]1Cc2c(cc(O)c3ccc(=O)oc23)O1
REMARK SMILES IDX 4 1 5 2 6 3 7 4 8 5 9 6 11 7 17 8 16 9 14 10 15 11 13 12
REMARK SMILES IDX 12 13 18 14 2 15 1 16 3 17 10 18
REMARK H PARENT 10 19
ROOT
ATOM      1  C   UNL     1      -2.865  -0.178   0.000  1.00  0.00     0.203 C 
ATOM      2  C   UNL     1      -1.615  -1.007   0.000  1.00  0.00     0.093 C 
ATOM      3  C   UNL     1      -0.440  -0.075   0.000  1.00  0.00     0.042 A 
ATOM      4  C   UNL     1      -0.964   1.331   0.000  1.00  0.00     0.131 A 
ATOM      5  C   UNL     1      -0.008   2.487   0.000  1.00  0.00     0.093 A 
ATOM      6  C   UNL     1       1.471   2.237   0.000  1.00  0.00     0.130 A 
ATOM      7  C   UNL     1       1.995   0.832   0.000  1.00  0.00     0.060 A 
ATOM      8  C   UNL     1       1.039  -0.325   0.000  1.00  0.00     0.149 A 
ATOM      9  O   UNL     1       1.562  -1.730   0.000  1.00  0.00    -0.422 OA
ATOM     10  C   UNL     1       3.042  -1.980   0.000  1.00  0.00     0.336 A 
ATOM     11  O   UNL     1       3.565  -3.385   0.000  1.00  0.00    -0.246 OA
ATOM     12  C   UNL     1       3.997  -0.824   0.000  1.00  0.00     0.095 A 
ATOM     13  C   UNL     1       3.474   0.582   0.000  1.00  0.00     0.023 A 
ATOM     14  O   UNL     1      -2.462   1.267   0.000  1.00  0.00    -0.485 OA
ENDROOT
BRANCH   1  15
ATOM     15  C   UNL     1      -4.271  -0.701   0.000  1.00  0.00    -0.040 C 
ATOM     16  C   UNL     1      -4.520  -2.180   0.000  1.00  0.00     0.011 C 
ATOM     17  C   UNL     1      -5.427   0.255   0.000  1.00  0.00     0.043 C 
ENDBRANCH   1  15
BRANCH   6  18
ATOM     18  O   UNL     1       2.427   3.394   0.000  1.00  0.00    -0.507 OA
ATOM     19  H   UNL     1       0.000   0.000   0.000  1.00  0.00     0.293 HD
ENDBRANCH   6  18
TORSDOF 2
