REMARK SMILES C=C[C@]1(C)CC2=C(O)C(=C)[C@@]34O[C@]3(CCCC4(C)C)[C@]2(C)[C@@H](OC(C)=O)C1
REMARK SMILES IDX 3 1 4 2 5 3 6 4 7 5 9 6 10 7 11 8 12 9 13 10 14 11 15 12
REMARK SMILES IDX 16 13 17 14 18 15 19 16 20 17 21 18 22 19 27 20 2 21 1 22
REMARK SMILES IDX 23 23 24 24 25 25 26 26 8 27
REMARK H PARENT 8 28
ROOT
ATOM      1  C   UNL     1      -3.071   1.321   0.000  1.00  0.00    -0.007 C 
ATOM      2  C   UNL     1      -4.522   0.940   0.000  1.00  0.00     0.016 C 
ATOM      3  C   UNL     1      -1.838   2.176   0.000  1.00  0.00     0.046 C 
ATOM      4  C   UNL     1      -0.482   1.536   0.000  1.00  0.00    -0.015 C 
ATOM      5  C   UNL     1       0.751   2.390   0.000  1.00  0.00     0.121 C 
ATOM      6  C   UNL     1       2.107   1.750   0.000  1.00  0.00     0.022 C 
ATOM      7  C   UNL     1       3.340   2.604   0.000  1.00  0.00     0.020 C 
ATOM      8  C   UNL     1       2.231   0.255   0.000  1.00  0.00     0.132 C 
ATOM      9  O   UNL     1       2.355  -1.240   0.000  1.00  0.00    -0.356 OA
ATOM     10  C   UNL     1       0.998  -0.600   0.000  1.00  0.00     0.116 C 
ATOM     11  C   UNL     1       1.122  -2.095   0.000  1.00  0.00     0.040 C 
ATOM     12  C   UNL     1       2.478  -2.735   0.000  1.00  0.00     0.004 C 
ATOM     13  C   UNL     1       3.711  -1.880   0.000  1.00  0.00     0.010 C 
ATOM     14  C   UNL     1       3.588  -0.385   0.000  1.00  0.00     0.001 C 
ATOM     15  C   UNL     1       3.983   1.062   0.000  1.00  0.00     0.014 C 
ATOM     16  C   UNL     1       5.081  -0.523   0.000  1.00  0.00     0.014 C 
ATOM     17  C   UNL     1      -0.358   0.041   0.000  1.00  0.00     0.062 C 
ATOM     18  C   UNL     1      -0.234  -1.454   0.000  1.00  0.00     0.023 C 
ATOM     19  C   UNL     1      -1.591  -0.814   0.000  1.00  0.00     0.190 C 
ATOM     20  C   UNL     1      -2.947  -0.173   0.000  1.00  0.00     0.057 C 
ENDROOT
BRANCH   1  21
ATOM     21  C   UNL     1      -3.699   2.684   0.000  1.00  0.00    -0.028 C 
ATOM     22  C   UNL     1      -2.832   3.909   0.000  1.00  0.00     0.004 C 
ENDBRANCH   1  21
BRANCH  19  23
ATOM     23  O   UNL     1      -1.467  -2.309   0.000  1.00  0.00    -0.461 OA
BRANCH  23  24
ATOM     24  C   UNL     1      -2.700  -3.163   0.000  1.00  0.00     0.302 C 
ATOM     25  C   UNL     1      -2.576  -4.658   0.000  1.00  0.00     0.139 C 
ATOM     26  O   UNL     1      -4.056  -2.523   0.000  1.00  0.00    -0.253 OA
ENDBRANCH  23  24
ENDBRANCH  19  23
BRANCH   5  27
ATOM     27  O   UNL     1       0.627   3.885   0.000  1.00  0.00    -0.508 OA
ATOM     28  H   UNL     1       0.000   0.000   0.000  1.00  0.00     0.293 HD
ENDBRANCH   5  27
TORSDOF 4
