REMARK SMILES COc1ccc(C(=O)c2nccc3cc4c(cc23)OCO4)cc1
REMARK SMILES IDX 3 1 4 2 5 3 6 4 22 5 23 6 2 7 1 8 7 9 8 10 9 11 10 12 18 13
REMARK SMILES IDX 11 14 17 15 13 16 12 17 16 18 14 19 15 20 19 21 21 22 20 23
REMARK H PARENT
ROOT
ATOM      1  C   UNL     1       5.215  -0.088   0.000  1.00  0.00     0.118 A 
ATOM      2  C   UNL     1       4.624  -1.467   0.000  1.00  0.00     0.047 A 
ATOM      3  C   UNL     1       3.135  -1.645   0.000  1.00  0.00     0.016 A 
ATOM      4  C   UNL     1       2.236  -0.445   0.000  1.00  0.00     0.024 A 
ATOM      5  C   UNL     1       2.826   0.934   0.000  1.00  0.00     0.016 A 
ATOM      6  C   UNL     1       4.316   1.112   0.000  1.00  0.00     0.047 A 
ENDROOT
BRANCH   1   7
ATOM      7  O   UNL     1       6.704   0.089   0.000  1.00  0.00    -0.497 OA
ATOM      8  C   UNL     1       7.603  -1.111   0.000  1.00  0.00     0.278 C 
ENDBRANCH   1   7
BRANCH   4   9
ATOM      9  C   UNL     1       0.746  -0.623   0.000  1.00  0.00     0.211 C 
ATOM     10  O   UNL     1       0.156  -2.001   0.000  1.00  0.00    -0.287 OA
BRANCH   9  11
ATOM     11  C   UNL     1      -0.152   0.578   0.000  1.00  0.00     0.119 A 
ATOM     12  N   UNL     1       0.438   1.957   0.000  1.00  0.00    -0.252 NA
ATOM     13  C   UNL     1      -1.642   0.400   0.000  1.00  0.00     0.015 A 
ATOM     14  C   UNL     1      -0.461   3.158   0.000  1.00  0.00     0.112 A 
ATOM     15  C   UNL     1      -2.232  -0.979   0.000  1.00  0.00     0.061 A 
ATOM     16  C   UNL     1      -2.541   1.601   0.000  1.00  0.00    -0.011 A 
ATOM     17  C   UNL     1      -1.950   2.980   0.000  1.00  0.00     0.029 A 
ATOM     18  C   UNL     1      -3.722  -1.157   0.000  1.00  0.00     0.166 A 
ATOM     19  C   UNL     1      -4.030   1.423   0.000  1.00  0.00     0.059 A 
ATOM     20  C   UNL     1      -4.621   0.044   0.000  1.00  0.00     0.166 A 
ATOM     21  O   UNL     1      -4.586  -2.383   0.000  1.00  0.00    -0.454 OA
ATOM     22  O   UNL     1      -6.041  -0.440   0.000  1.00  0.00    -0.454 OA
ATOM     23  C   UNL     1      -6.019  -1.939   0.000  1.00  0.00     0.468 C 
ENDBRANCH   9  11
ENDBRANCH   4   9
TORSDOF 3
