REMARK SMILES COc1c([C@@H]2COc3cc(O)ccc3C2)ccc(Oc2ccc([C@@H]3COc4cc(O)ccc4C3)c(OC)c2O)c1O
REMARK SMILES IDX 19 1 18 2 3 3 4 4 40 5 16 6 17 7 2 8 1 9 5 10 6 11 15 12
REMARK SMILES IDX 7 13 14 14 8 15 13 16 9 17 12 18 10 19 11 20 41 22 20 24
REMARK SMILES IDX 21 25 38 26 22 27 35 28 23 29 39 30 36 32 37 33 24 34 25 35
REMARK SMILES IDX 34 36 26 37 33 38 27 39 32 40 28 41 31 42 29 43 30 44
REMARK H PARENT 11 21 41 23 39 31 30 45
ROOT
ATOM      1  O   UNL     1       0.043  -3.119   0.000  1.00  0.00    -0.449 OA
ENDROOT
BRANCH   1   2
ATOM      2  C   UNL     1       1.422  -2.528   0.000  1.00  0.00     0.173 A 
ATOM      3  C   UNL     1       2.978  -0.447   0.000  1.00  0.00     0.168 A 
ATOM      4  C   UNL     1       4.179  -1.346   0.000  1.00  0.00     0.005 A 
ATOM      5  C   UNL     1       1.599  -1.038   0.000  1.00  0.00     0.201 A 
ATOM      6  C   UNL     1       4.002  -2.835   0.000  1.00  0.00     0.012 A 
ATOM      7  C   UNL     1       2.623  -3.426   0.000  1.00  0.00     0.052 A 
BRANCH   3   8
ATOM      8  O   UNL     1       3.156   1.042   0.000  1.00  0.00    -0.492 OA
ATOM      9  C   UNL     1       1.954   1.941   0.000  1.00  0.00     0.278 C 
ENDBRANCH   3   8
BRANCH   4  10
ATOM     10  C   UNL     1       5.558  -0.755   0.000  1.00  0.00     0.065 C 
ATOM     11  C   UNL     1       6.759  -1.653   0.000  1.00  0.00     0.238 C 
ATOM     12  C   UNL     1       5.735   0.735   0.000  1.00  0.00     0.051 C 
ATOM     13  O   UNL     1       8.138  -1.062   0.000  1.00  0.00    -0.493 OA
ATOM     14  C   UNL     1       7.114   1.326   0.000  1.00  0.00    -0.005 A 
ATOM     15  C   UNL     1       8.315   0.427   0.000  1.00  0.00     0.126 A 
ATOM     16  C   UNL     1       7.292   2.815   0.000  1.00  0.00     0.011 A 
ATOM     17  C   UNL     1       9.694   1.018   0.000  1.00  0.00     0.092 A 
ATOM     18  C   UNL     1       8.670   3.406   0.000  1.00  0.00     0.047 A 
ATOM     19  C   UNL     1       9.871   2.507   0.000  1.00  0.00     0.119 A 
BRANCH  19  20
ATOM     20  O   UNL     1      11.250   3.098   0.000  1.00  0.00    -0.508 OA
ATOM     21  H   UNL     1       0.000   0.000   0.000  1.00  0.00     0.293 HD
ENDBRANCH  19  20
ENDBRANCH   4  10
BRANCH   5  22
ATOM     22  O   UNL     1       0.398  -0.140   0.000  1.00  0.00    -0.502 OA
ATOM     23  H   UNL     1       0.000   0.000   0.000  1.00  0.00     0.293 HD
ENDBRANCH   5  22
ENDBRANCH   1   2
BRANCH   1  24
ATOM     24  C   UNL     1      -1.158  -2.220   0.000  1.00  0.00     0.173 A 
ATOM     25  C   UNL     1      -0.981  -0.731   0.000  1.00  0.00     0.052 A 
ATOM     26  C   UNL     1      -2.537  -2.811   0.000  1.00  0.00     0.201 A 
ATOM     27  C   UNL     1      -2.182   0.168   0.000  1.00  0.00     0.012 A 
ATOM     28  C   UNL     1      -3.738  -1.912   0.000  1.00  0.00     0.168 A 
ATOM     29  C   UNL     1      -3.560  -0.423   0.000  1.00  0.00     0.005 A 
BRANCH  26  30
ATOM     30  O   UNL     1      -2.714  -4.300   0.000  1.00  0.00    -0.502 OA
ATOM     31  H   UNL     1       0.000   0.000   0.000  1.00  0.00     0.293 HD
ENDBRANCH  26  30
BRANCH  28  32
ATOM     32  O   UNL     1      -5.117  -2.503   0.000  1.00  0.00    -0.492 OA
ATOM     33  C   UNL     1      -5.294  -3.993   0.000  1.00  0.00     0.278 C 
ENDBRANCH  28  32
BRANCH  29  34
ATOM     34  C   UNL     1      -4.761   0.476   0.000  1.00  0.00     0.065 C 
ATOM     35  C   UNL     1      -4.584   1.965   0.000  1.00  0.00     0.238 C 
ATOM     36  C   UNL     1      -6.140  -0.115   0.000  1.00  0.00     0.051 C 
ATOM     37  O   UNL     1      -5.785   2.864   0.000  1.00  0.00    -0.493 OA
ATOM     38  C   UNL     1      -7.341   0.783   0.000  1.00  0.00    -0.005 A 
ATOM     39  C   UNL     1      -7.164   2.273   0.000  1.00  0.00     0.126 A 
ATOM     40  C   UNL     1      -8.720   0.192   0.000  1.00  0.00     0.011 A 
ATOM     41  C   UNL     1      -8.365   3.171   0.000  1.00  0.00     0.092 A 
ATOM     42  C   UNL     1      -9.921   1.091   0.000  1.00  0.00     0.047 A 
ATOM     43  C   UNL     1      -9.743   2.580   0.000  1.00  0.00     0.119 A 
BRANCH  43  44
ATOM     44  O   UNL     1     -10.945   3.479   0.000  1.00  0.00    -0.508 OA
ATOM     45  H   UNL     1       0.000   0.000   0.000  1.00  0.00     0.293 HD
ENDBRANCH  43  44
ENDBRANCH  29  34
ENDBRANCH   1  24
TORSDOF 10
