REMARK SMILES O=C1c2ccc(O)cc2C(=O)c2c(O)cc(CO)cc21
REMARK SMILES IDX 1 1 2 2 3 3 4 4 5 5 6 6 8 7 9 8 10 9 11 10 12 11 13 12 15 13
REMARK SMILES IDX 16 14 19 15 20 16 17 17 18 18 14 20 7 22
REMARK H PARENT 18 19 14 21 7 23
ROOT
ATOM      1  O   UNL     1       0.160  -3.142   0.000  1.00  0.00    -0.289 OA
ATOM      2  C   UNL     1       0.301  -1.648   0.000  1.00  0.00     0.194 C 
ATOM      3  C   UNL     1       1.665  -1.024   0.000  1.00  0.00     0.034 A 
ATOM      4  C   UNL     1       2.887  -1.893   0.000  1.00  0.00     0.017 A 
ATOM      5  C   UNL     1       4.251  -1.268   0.000  1.00  0.00     0.047 A 
ATOM      6  C   UNL     1       4.393   0.225   0.000  1.00  0.00     0.116 A 
ATOM      7  C   UNL     1       3.170   1.094   0.000  1.00  0.00     0.059 A 
ATOM      8  C   UNL     1       1.806   0.470   0.000  1.00  0.00     0.038 A 
ATOM      9  C   UNL     1       0.583   1.339   0.000  1.00  0.00     0.198 C 
ATOM     10  O   UNL     1       0.724   2.832   0.000  1.00  0.00    -0.288 OA
ATOM     11  C   UNL     1      -0.781   0.714   0.000  1.00  0.00     0.075 A 
ATOM     12  C   UNL     1      -2.003   1.583   0.000  1.00  0.00     0.127 A 
ATOM     13  C   UNL     1      -3.367   0.959   0.000  1.00  0.00     0.053 A 
ATOM     14  C   UNL     1      -3.508  -0.535   0.000  1.00  0.00    -0.018 A 
ATOM     15  C   UNL     1      -2.286  -1.404   0.000  1.00  0.00     0.019 A 
ATOM     16  C   UNL     1      -0.922  -0.779   0.000  1.00  0.00     0.038 A 
ENDROOT
BRANCH  14  17
ATOM     17  C   UNL     1      -4.872  -1.159   0.000  1.00  0.00     0.191 C 
BRANCH  17  18
ATOM     18  O   UNL     1      -6.095  -0.290   0.000  1.00  0.00    -0.392 OA
ATOM     19  H   UNL     1       0.000   0.000   0.000  1.00  0.00     0.211 HD
ENDBRANCH  17  18
ENDBRANCH  14  17
BRANCH  12  20
ATOM     20  O   UNL     1      -1.862   3.076   0.000  1.00  0.00    -0.507 OA
ATOM     21  H   UNL     1       0.000   0.000   0.000  1.00  0.00     0.293 HD
ENDBRANCH  12  20
BRANCH   6  22
ATOM     22  O   UNL     1       5.756   0.850   0.000  1.00  0.00    -0.508 OA
ATOM     23  H   UNL     1       0.000   0.000   0.000  1.00  0.00     0.293 HD
ENDBRANCH   6  22
TORSDOF 4
