REMARK SMILES COc1cc(-c2cc(=O)c3c(OC(C)=O)c4c(c(OC)c3o2)OC(C)(C)C=C4)cc(OC)c1OC(C)=O
REMARK SMILES IDX 6 1 7 2 8 3 9 4 10 5 11 6 16 7 17 8 23 9 24 10 25 11 26 12
REMARK SMILES IDX 27 13 28 14 18 15 21 16 22 17 5 18 3 19 4 20 33 21 30 22
REMARK SMILES IDX 29 23 2 24 1 25 34 26 35 27 36 28 37 29 31 30 32 31 19 32
REMARK SMILES IDX 20 33 12 34 13 35 14 36 15 37
REMARK H PARENT
ROOT
ATOM      1  C   UNL     1      -1.083   0.362   0.000  1.00  0.00     0.139 A 
ATOM      2  C   UNL     1      -0.622   1.789   0.000  1.00  0.00     0.100 A 
ATOM      3  C   UNL     1       0.845   2.103   0.000  1.00  0.00     0.197 A 
ATOM      4  O   UNL     1       1.306   3.530   0.000  1.00  0.00    -0.289 OA
ATOM      5  C   UNL     1       1.850   0.990   0.000  1.00  0.00     0.112 A 
ATOM      6  C   UNL     1       3.317   1.304   0.000  1.00  0.00     0.157 A 
ATOM      7  C   UNL     1       4.322   0.191   0.000  1.00  0.00     0.064 A 
ATOM      8  C   UNL     1       3.861  -1.237   0.000  1.00  0.00     0.177 A 
ATOM      9  O   UNL     1       4.866  -2.350   0.000  1.00  0.00    -0.479 OA
ATOM     10  C   UNL     1       6.333  -2.036   0.000  1.00  0.00     0.122 C 
ATOM     11  C   UNL     1       7.819  -2.242   0.000  1.00  0.00     0.061 C 
ATOM     12  C   UNL     1       6.388  -3.535   0.000  1.00  0.00     0.061 C 
ATOM     13  C   UNL     1       6.794  -0.609   0.000  1.00  0.00     0.021 C 
ATOM     14  C   UNL     1       5.789   0.505   0.000  1.00  0.00     0.016 C 
ATOM     15  C   UNL     1       2.394  -1.551   0.000  1.00  0.00     0.205 A 
ATOM     16  C   UNL     1       1.389  -0.438   0.000  1.00  0.00     0.188 A 
ATOM     17  O   UNL     1      -0.078  -0.752   0.000  1.00  0.00    -0.452 OA
ENDROOT
BRANCH   1  18
ATOM     18  C   UNL     1      -2.550   0.048   0.000  1.00  0.00     0.025 A 
ATOM     19  C   UNL     1      -5.022   0.847   0.000  1.00  0.00     0.166 A 
ATOM     20  C   UNL     1      -3.556   1.161   0.000  1.00  0.00     0.062 A 
ATOM     21  C   UNL     1      -5.484  -0.581   0.000  1.00  0.00     0.214 A 
ATOM     22  C   UNL     1      -4.478  -1.694   0.000  1.00  0.00     0.166 A 
ATOM     23  C   UNL     1      -3.012  -1.380   0.000  1.00  0.00     0.062 A 
BRANCH  19  24
ATOM     24  O   UNL     1      -6.028   1.960   0.000  1.00  0.00    -0.493 OA
ATOM     25  C   UNL     1      -5.566   3.387   0.000  1.00  0.00     0.278 C 
ENDBRANCH  19  24
BRANCH  21  26
ATOM     26  O   UNL     1      -6.950  -0.895   0.000  1.00  0.00    -0.419 OA
BRANCH  26  27
ATOM     27  C   UNL     1      -7.956   0.218   0.000  1.00  0.00     0.308 C 
ATOM     28  C   UNL     1      -9.423  -0.096   0.000  1.00  0.00     0.139 C 
ATOM     29  O   UNL     1      -7.495   1.646   0.000  1.00  0.00    -0.252 OA
ENDBRANCH  26  27
ENDBRANCH  21  26
BRANCH  22  30
ATOM     30  O   UNL     1      -4.940  -3.121   0.000  1.00  0.00    -0.493 OA
ATOM     31  C   UNL     1      -6.407  -3.435   0.000  1.00  0.00     0.278 C 
ENDBRANCH  22  30
ENDBRANCH   1  18
BRANCH  15  32
ATOM     32  O   UNL     1       1.933  -2.978   0.000  1.00  0.00    -0.490 OA
ATOM     33  C   UNL     1       0.466  -3.292   0.000  1.00  0.00     0.278 C 
ENDBRANCH  15  32
BRANCH   6  34
ATOM     34  O   UNL     1       3.778   2.731   0.000  1.00  0.00    -0.425 OA
BRANCH  34  35
ATOM     35  C   UNL     1       5.245   3.045   0.000  1.00  0.00     0.308 C 
ATOM     36  C   UNL     1       5.706   4.472   0.000  1.00  0.00     0.139 C 
ATOM     37  O   UNL     1       6.250   1.932   0.000  1.00  0.00    -0.252 OA
ENDBRANCH  34  35
ENDBRANCH   6  34
TORSDOF 8
