REMARK SMILES COc1cc2c(cc1OC)[C@]13C[C@@H](O)C=CC1=CCN3C[C@H]2O
REMARK SMILES IDX 3 1 4 2 5 3 6 4 7 5 8 6 11 7 12 8 13 9 15 10 16 11 17 12
REMARK SMILES IDX 18 13 19 14 20 15 21 16 22 17 2 18 1 19 9 20 10 21 23 22
REMARK SMILES IDX 14 24
REMARK H PARENT 23 23 14 25
ROOT
ATOM      1  C   UNL     1       2.494  -0.530   0.000  1.00  0.00     0.161 A 
ATOM      2  C   UNL     1       1.545  -1.692   0.000  1.00  0.00     0.057 A 
ATOM      3  C   UNL     1       0.064  -1.451   0.000  1.00  0.00    -0.009 A 
ATOM      4  C   UNL     1      -0.468  -0.048   0.000  1.00  0.00    -0.013 A 
ATOM      5  C   UNL     1       0.481   1.114   0.000  1.00  0.00     0.056 A 
ATOM      6  C   UNL     1       1.962   0.873   0.000  1.00  0.00     0.161 A 
ATOM      7  C   UNL     1      -1.948   0.193   0.000  1.00  0.00     0.075 C 
ATOM      8  C   UNL     1      -0.829   0.854   0.000  1.00  0.00     0.068 C 
ATOM      9  C   UNL     1      -0.463   1.565   0.000  1.00  0.00     0.139 C 
ATOM     10  C   UNL     1      -0.895   2.238   0.000  1.00  0.00     0.005 C 
ATOM     11  C   UNL     1      -1.694   2.199   0.000  1.00  0.00     0.004 C 
ATOM     12  C   UNL     1      -2.760   1.454   0.000  1.00  0.00    -0.026 C 
ATOM     13  C   UNL     1      -4.210   1.072   0.000  1.00  0.00    -0.006 C 
ATOM     14  C   UNL     1      -4.295  -0.426   0.000  1.00  0.00     0.113 C 
ATOM     15  N   UNL     1      -2.897  -0.969   0.000  1.00  0.00    -0.283 NA
ATOM     16  C   UNL     1      -2.365  -2.372   0.000  1.00  0.00     0.122 C 
ATOM     17  C   UNL     1      -0.885  -2.613   0.000  1.00  0.00     0.159 C 
ENDROOT
BRANCH   1  18
ATOM     18  O   UNL     1       3.974  -0.771   0.000  1.00  0.00    -0.493 OA
ATOM     19  C   UNL     1       4.506  -2.173   0.000  1.00  0.00     0.278 C 
ENDBRANCH   1  18
BRANCH   6  20
ATOM     20  O   UNL     1       2.911   2.035   0.000  1.00  0.00    -0.493 OA
ATOM     21  C   UNL     1       4.391   1.794   0.000  1.00  0.00     0.278 C 
ENDBRANCH   6  20
BRANCH  17  22
ATOM     22  O   UNL     1      -0.353  -4.015   0.000  1.00  0.00    -0.387 OA
ATOM     23  H   UNL     1       0.000   0.000   0.000  1.00  0.00     0.211 HD
ENDBRANCH  17  22
BRANCH   9  24
ATOM     24  O   UNL     1       1.735   1.671   0.000  1.00  0.00    -0.389 OA
ATOM     25  H   UNL     1       0.000   0.000   0.000  1.00  0.00     0.211 HD
ENDBRANCH   9  24
TORSDOF 4
