REMARK SMILES C=CC[C@@]12C=C(OC)[C@H](OC(C)=O)[C@@](OC)(C1OC(C)=O)[C@@H](c1ccc3c(c1)OCO3)[C@@H]2C
REMARK SMILES IDX 4 1 5 2 6 3 9 4 14 5 17 6 22 7 32 8 33 9 3 10 2 11 1 12
REMARK SMILES IDX 18 13 19 14 20 15 21 16 7 17 8 18 15 19 16 20 23 21 24 22
REMARK SMILES IDX 28 23 25 24 27 25 26 26 29 27 31 28 30 29 10 30 11 31 12 32
REMARK SMILES IDX 13 33
REMARK H PARENT
ROOT
ATOM      1  C   UNL     1       1.920   1.665   0.000  1.00  0.00     0.039 C 
ATOM      2  C   UNL     1       3.363   1.257   0.000  1.00  0.00     0.030 C 
ATOM      3  C   UNL     1       3.732  -0.197   0.000  1.00  0.00     0.136 C 
ATOM      4  C   UNL     1       2.657  -1.243   0.000  1.00  0.00     0.277 C 
ATOM      5  C   UNL     1       1.214  -0.835   0.000  1.00  0.00     0.156 C 
ATOM      6  C   UNL     1       0.845   0.619   0.000  1.00  0.00     0.224 C 
ATOM      7  C   UNL     1       0.013   0.163   0.000  1.00  0.00     0.063 C 
ATOM      8  C   UNL     1       0.421   1.607   0.000  1.00  0.00     0.011 C 
ATOM      9  C   UNL     1       0.094   2.333   0.000  1.00  0.00     0.009 C 
ENDROOT
BRANCH   1  10
ATOM     10  C   UNL     1       1.551   3.119   0.000  1.00  0.00     0.042 C 
BRANCH  10  11
ATOM     11  C   UNL     1       2.626   4.165   0.000  1.00  0.00    -0.034 C 
ATOM     12  C   UNL     1       2.257   5.619   0.000  1.00  0.00     0.004 C 
ENDBRANCH  10  11
ENDBRANCH   1  10
BRANCH   6  13
ATOM     13  O   UNL     1      -0.599   1.026   0.000  1.00  0.00    -0.458 OA
BRANCH  13  14
ATOM     14  C   UNL     1      -0.967   2.480   0.000  1.00  0.00     0.303 C 
ATOM     15  C   UNL     1      -2.411   2.888   0.000  1.00  0.00     0.139 C 
ATOM     16  O   UNL     1      -0.396   3.036   0.000  1.00  0.00    -0.253 OA
ENDBRANCH  13  14
ENDBRANCH   6  13
BRANCH   3  17
ATOM     17  O   UNL     1       5.176  -0.604   0.000  1.00  0.00    -0.497 OA
ATOM     18  C   UNL     1       5.544  -2.058   0.000  1.00  0.00     0.278 C 
ENDBRANCH   3  17
BRANCH   5  19
ATOM     19  O   UNL     1       0.139  -1.882   0.000  1.00  0.00    -0.369 OA
ATOM     20  C   UNL     1      -0.845  -1.851   0.000  1.00  0.00     0.196 C 
ENDBRANCH   5  19
BRANCH   7  21
ATOM     21  C   UNL     1      -1.394  -0.356   0.000  1.00  0.00    -0.037 A 
ATOM     22  C   UNL     1      -1.649  -1.834   0.000  1.00  0.00     0.008 A 
ATOM     23  C   UNL     1      -2.547   0.604   0.000  1.00  0.00     0.054 A 
ATOM     24  C   UNL     1      -3.056  -2.353   0.000  1.00  0.00     0.051 A 
ATOM     25  C   UNL     1      -3.954   0.085   0.000  1.00  0.00     0.166 A 
ATOM     26  C   UNL     1      -4.209  -1.393   0.000  1.00  0.00     0.165 A 
ATOM     27  O   UNL     1      -5.282   0.784   0.000  1.00  0.00    -0.454 OA
ATOM     28  O   UNL     1      -5.694  -1.608   0.000  1.00  0.00    -0.454 OA
ATOM     29  C   UNL     1      -6.357  -0.262   0.000  1.00  0.00     0.468 C 
ENDBRANCH   7  21
BRANCH   4  30
ATOM     30  O   UNL     1       3.026  -2.697   0.000  1.00  0.00    -0.451 OA
BRANCH  30  31
ATOM     31  C   UNL     1       1.951  -3.743   0.000  1.00  0.00     0.303 C 
ATOM     32  C   UNL     1       2.320  -5.197   0.000  1.00  0.00     0.139 C 
ATOM     33  O   UNL     1       0.508  -3.336   0.000  1.00  0.00    -0.253 OA
ENDBRANCH  30  31
ENDBRANCH   4  30
TORSDOF 9
