REMARK SMILES CCCc1cc(=O)c2ccccc2n1C
REMARK SMILES IDX 3 1 2 2 1 3 4 4 5 5 14 6 6 7 13 8 8 9 12 10 9 11 11 12 10 13
REMARK SMILES IDX 15 14 7 15
REMARK H PARENT
ROOT
ATOM      1  C   UNL     1      -2.924  -0.721   0.000  1.00  0.00     0.054 C 
ENDROOT
BRANCH   1   2
ATOM      2  C   UNL     1      -3.724   0.547   0.000  1.00  0.00     0.003 C 
ATOM      3  C   UNL     1      -5.223   0.489   0.000  1.00  0.00     0.004 C 
ENDBRANCH   1   2
BRANCH   1   4
ATOM      4  C   UNL     1      -1.425  -0.663   0.000  1.00  0.00     0.022 A 
ATOM      5  C   UNL     1      -0.625  -1.931   0.000  1.00  0.00     0.074 A 
ATOM      6  N   UNL     1      -0.727   0.665   0.000  1.00  0.00    -0.347 N 
ATOM      7  C   UNL     1       0.874  -1.872   0.000  1.00  0.00     0.189 A 
ATOM      8  C   UNL     1       0.772   0.724   0.000  1.00  0.00     0.052 A 
ATOM      9  C   UNL     1       1.573  -0.545   0.000  1.00  0.00     0.046 A 
ATOM     10  C   UNL     1       1.471   2.051   0.000  1.00  0.00     0.027 A 
ATOM     11  C   UNL     1       3.071  -0.486   0.000  1.00  0.00     0.014 A 
ATOM     12  C   UNL     1       2.970   2.110   0.000  1.00  0.00     0.002 A 
ATOM     13  C   UNL     1       3.770   0.841   0.000  1.00  0.00     0.001 A 
ATOM     14  C   UNL     1      -1.527   1.933   0.000  1.00  0.00     0.150 C 
ATOM     15  O   UNL     1       1.674  -3.141   0.000  1.00  0.00    -0.289 OA
ENDBRANCH   1   4
TORSDOF 2
