REMARK SMILES COc1c(O[C@@H]2O[C@H](CO)[C@@H](O)[C@H](O)[C@H]2O)cc2occ(-c3ccc(O)cc3)c(=O)c2c1O
REMARK SMILES IDX 5 1 4 2 3 3 32 4 17 5 31 6 18 7 29 8 19 9 21 10 20 11 30 12
REMARK SMILES IDX 2 13 1 14 33 15 22 17 23 18 28 19 24 20 27 21 25 22 26 23
REMARK SMILES IDX 6 25 7 26 15 27 8 28 13 29 11 30 16 31 9 33 10 34 14 36
REMARK SMILES IDX 12 38
REMARK H PARENT 33 16 26 24 16 32 10 35 14 37 12 39
ROOT
ATOM      1  O   UNL     1      -2.688  -2.039   0.000  1.00  0.00    -0.458 OA
ENDROOT
BRANCH   1   2
ATOM      2  C   UNL     1      -1.293  -1.486   0.000  1.00  0.00     0.172 A 
ATOM      3  C   UNL     1      -1.075  -0.002   0.000  1.00  0.00     0.204 A 
ATOM      4  C   UNL     1       0.320   0.550   0.000  1.00  0.00     0.176 A 
ATOM      5  C   UNL     1      -0.118  -2.418   0.000  1.00  0.00     0.098 A 
ATOM      6  C   UNL     1       1.496  -0.381   0.000  1.00  0.00     0.111 A 
ATOM      7  C   UNL     1       1.277  -1.865   0.000  1.00  0.00     0.145 A 
ATOM      8  C   UNL     1       2.890   0.171   0.000  1.00  0.00     0.204 A 
ATOM      9  O   UNL     1       2.453  -2.797   0.000  1.00  0.00    -0.463 OA
ATOM     10  C   UNL     1       4.066  -0.760   0.000  1.00  0.00     0.065 A 
ATOM     11  C   UNL     1       3.847  -2.244   0.000  1.00  0.00     0.208 A 
ATOM     12  O   UNL     1       3.109   1.655   0.000  1.00  0.00    -0.288 OA
BRANCH   3  13
ATOM     13  O   UNL     1      -2.251   0.929   0.000  1.00  0.00    -0.490 OA
ATOM     14  C   UNL     1      -2.032   2.413   0.000  1.00  0.00     0.278 C 
ENDBRANCH   3  13
BRANCH   4  15
ATOM     15  O   UNL     1       0.539   2.034   0.000  1.00  0.00    -0.504 OA
ATOM     16  H   UNL     1       0.000   0.000   0.000  1.00  0.00     0.293 HD
ENDBRANCH   4  15
BRANCH  10  17
ATOM     17  C   UNL     1       5.460  -0.207   0.000  1.00  0.00    -0.011 A 
ATOM     18  C   UNL     1       6.636  -1.139   0.000  1.00  0.00     0.013 A 
ATOM     19  C   UNL     1       5.679   1.276   0.000  1.00  0.00     0.013 A 
ATOM     20  C   UNL     1       8.031  -0.586   0.000  1.00  0.00     0.047 A 
ATOM     21  C   UNL     1       7.074   1.829   0.000  1.00  0.00     0.047 A 
ATOM     22  C   UNL     1       8.249   0.898   0.000  1.00  0.00     0.115 A 
BRANCH  22  23
ATOM     23  O   UNL     1       9.644   1.450   0.000  1.00  0.00    -0.508 OA
ATOM     24  H   UNL     1       0.000   0.000   0.000  1.00  0.00     0.293 HD
ENDBRANCH  22  23
ENDBRANCH  10  17
ENDBRANCH   1   2
BRANCH   1  25
ATOM     25  C   UNL     1      -3.864  -1.107   0.000  1.00  0.00     0.339 C 
ATOM     26  O   UNL     1      -3.645   0.376   0.000  1.00  0.00    -0.332 OA
ATOM     27  C   UNL     1      -5.258  -1.660   0.000  1.00  0.00     0.214 C 
ATOM     28  C   UNL     1      -4.821   1.308   0.000  1.00  0.00     0.179 C 
ATOM     29  C   UNL     1      -6.434  -0.729   0.000  1.00  0.00     0.180 C 
ATOM     30  C   UNL     1      -6.215   0.755   0.000  1.00  0.00     0.177 C 
BRANCH  27  31
ATOM     31  O   UNL     1      -5.477  -3.144   0.000  1.00  0.00    -0.384 OA
ATOM     32  H   UNL     1       0.000   0.000   0.000  1.00  0.00     0.211 HD
ENDBRANCH  27  31
BRANCH  28  33
ATOM     33  C   UNL     1      -4.602   2.792   0.000  1.00  0.00     0.191 C 
BRANCH  33  34
ATOM     34  O   UNL     1      -5.778   3.723   0.000  1.00  0.00    -0.394 OA
ATOM     35  H   UNL     1       0.000   0.000   0.000  1.00  0.00     0.210 HD
ENDBRANCH  33  34
ENDBRANCH  28  33
BRANCH  29  36
ATOM     36  O   UNL     1      -7.829  -1.281   0.000  1.00  0.00    -0.387 OA
ATOM     37  H   UNL     1       0.000   0.000   0.000  1.00  0.00     0.211 HD
ENDBRANCH  29  36
BRANCH  30  38
ATOM     38  O   UNL     1      -7.391   1.687   0.000  1.00  0.00    -0.387 OA
ATOM     39  H   UNL     1       0.000   0.000   0.000  1.00  0.00     0.211 HD
ENDBRANCH  30  38
ENDBRANCH   1  25
TORSDOF 11
