REMARK SMILES COc1ccc([C@H]2OC[C@H]3[C@@H]2CO[C@@H]3c2cc(OC)c(OC)c(OC)c2)cc1OC
REMARK SMILES IDX 7 1 8 2 9 3 10 4 11 5 12 6 13 7 14 8 6 9 3 10 4 11 28 12
REMARK SMILES IDX 5 13 27 14 2 15 1 16 29 17 30 18 15 19 16 20 26 21 17 22
REMARK SMILES IDX 23 23 20 24 18 25 19 26 24 27 25 28 21 29 22 30
REMARK H PARENT
ROOT
ATOM      1  C   UNL     1       2.115  -0.905   0.000  1.00  0.00     0.154 C 
ATOM      2  O   UNL     1       1.402  -2.224   0.000  1.00  0.00    -0.373 OA
ATOM      3  C   UNL     1      -0.074  -1.954   0.000  1.00  0.00     0.168 C 
ATOM      4  C   UNL     1      -0.272  -0.467   0.000  1.00  0.00     0.057 C 
ATOM      5  C   UNL     1       1.080   0.181   0.000  1.00  0.00     0.057 C 
ATOM      6  C   UNL     1       0.881   1.668   0.000  1.00  0.00     0.168 C 
ATOM      7  O   UNL     1      -0.594   1.938   0.000  1.00  0.00    -0.373 OA
ATOM      8  C   UNL     1      -1.307   0.619   0.000  1.00  0.00     0.154 C 
ENDROOT
BRANCH   1   9
ATOM      9  C   UNL     1       3.602  -0.706   0.000  1.00  0.00    -0.015 A 
ATOM     10  C   UNL     1       6.575  -0.308   0.000  1.00  0.00     0.160 A 
ATOM     11  C   UNL     1       6.004  -1.696   0.000  1.00  0.00     0.051 A 
ATOM     12  C   UNL     1       5.660   0.880   0.000  1.00  0.00     0.161 A 
ATOM     13  C   UNL     1       4.517  -1.894   0.000  1.00  0.00     0.010 A 
ATOM     14  C   UNL     1       4.173   0.681   0.000  1.00  0.00     0.056 A 
BRANCH  10  15
ATOM     15  O   UNL     1       8.062  -0.110   0.000  1.00  0.00    -0.493 OA
ATOM     16  C   UNL     1       8.977  -1.298   0.000  1.00  0.00     0.278 C 
ENDBRANCH  10  15
BRANCH  12  17
ATOM     17  O   UNL     1       6.231   2.267   0.000  1.00  0.00    -0.493 OA
ATOM     18  C   UNL     1       5.315   3.455   0.000  1.00  0.00     0.278 C 
ENDBRANCH  12  17
ENDBRANCH   1   9
BRANCH   8  19
ATOM     19  C   UNL     1      -2.794   0.420   0.000  1.00  0.00    -0.011 A 
ATOM     20  C   UNL     1      -3.709   1.608   0.000  1.00  0.00     0.057 A 
ATOM     21  C   UNL     1      -3.365  -0.967   0.000  1.00  0.00     0.057 A 
ATOM     22  C   UNL     1      -5.196   1.409   0.000  1.00  0.00     0.165 A 
ATOM     23  C   UNL     1      -4.852  -1.166   0.000  1.00  0.00     0.165 A 
ATOM     24  C   UNL     1      -5.768   0.022   0.000  1.00  0.00     0.203 A 
BRANCH  22  25
ATOM     25  O   UNL     1      -6.112   2.598   0.000  1.00  0.00    -0.493 OA
ATOM     26  C   UNL     1      -5.540   3.984   0.000  1.00  0.00     0.278 C 
ENDBRANCH  22  25
BRANCH  23  27
ATOM     27  O   UNL     1      -5.423  -2.553   0.000  1.00  0.00    -0.493 OA
ATOM     28  C   UNL     1      -4.508  -3.741   0.000  1.00  0.00     0.278 C 
ENDBRANCH  23  27
BRANCH  24  29
ATOM     29  O   UNL     1      -7.254  -0.176   0.000  1.00  0.00    -0.490 OA
ATOM     30  C   UNL     1      -7.825  -1.563   0.000  1.00  0.00     0.278 C 
ENDBRANCH  24  29
ENDBRANCH   8  19
TORSDOF 7
