REMARK SMILES COC1=CC(=O)C[C@@H](C)[C@]12Oc1cc(OC)cc(OC)c1C2=O
REMARK SMILES IDX 3 1 4 2 5 3 6 4 7 5 8 6 9 7 10 8 11 9 12 10 13 11 14 12
REMARK SMILES IDX 17 13 18 14 21 15 22 16 23 17 2 18 1 19 19 20 20 21 15 22
REMARK SMILES IDX 16 23
REMARK H PARENT
ROOT
ATOM      1  C   UNL     1      -2.159  -0.819   0.000  1.00  0.00     0.151 C 
ATOM      2  C   UNL     1      -3.659  -0.802   0.000  1.00  0.00     0.093 C 
ATOM      3  C   UNL     1      -4.395   0.505   0.000  1.00  0.00     0.159 C 
ATOM      4  O   UNL     1      -5.895   0.522   0.000  1.00  0.00    -0.295 OA
ATOM      5  C   UNL     1      -3.630   1.796   0.000  1.00  0.00     0.089 C 
ATOM      6  C   UNL     1      -2.130   1.779   0.000  1.00  0.00     0.054 C 
ATOM      7  C   UNL     1      -1.366   3.070   0.000  1.00  0.00     0.013 C 
ATOM      8  C   UNL     1      -1.395   0.472   0.000  1.00  0.00     0.231 C 
ATOM      9  O   UNL     1      -0.500   1.675   0.000  1.00  0.00    -0.470 OA
ATOM     10  C   UNL     1       0.922   1.196   0.000  1.00  0.00     0.140 A 
ATOM     11  C   UNL     1       2.229   1.931   0.000  1.00  0.00     0.094 A 
ATOM     12  C   UNL     1       3.520   1.167   0.000  1.00  0.00     0.126 A 
ATOM     13  C   UNL     1       3.503  -0.333   0.000  1.00  0.00     0.093 A 
ATOM     14  C   UNL     1       2.196  -1.068   0.000  1.00  0.00     0.137 A 
ATOM     15  C   UNL     1       0.905  -0.304   0.000  1.00  0.00     0.107 A 
ATOM     16  C   UNL     1      -0.527  -0.751   0.000  1.00  0.00     0.222 C 
ATOM     17  O   UNL     1      -0.598  -1.634   0.000  1.00  0.00    -0.289 OA
ENDROOT
BRANCH   1  18
ATOM     18  O   UNL     1      -1.424  -2.126   0.000  1.00  0.00    -0.496 OA
ATOM     19  C   UNL     1      -2.188  -3.417   0.000  1.00  0.00     0.278 C 
ENDBRANCH   1  18
BRANCH  14  20
ATOM     20  O   UNL     1       2.179  -2.568   0.000  1.00  0.00    -0.496 OA
ATOM     21  C   UNL     1       3.469  -3.333   0.000  1.00  0.00     0.278 C 
ENDBRANCH  14  20
BRANCH  12  22
ATOM     22  O   UNL     1       4.827   1.903   0.000  1.00  0.00    -0.496 OA
ATOM     23  C   UNL     1       6.117   1.138   0.000  1.00  0.00     0.278 C 
ENDBRANCH  12  22
TORSDOF 3
