REMARK SMILES C=C/C(C)=C/C[C@]1(C)[C@H]2C[C@H](OC(=O)c3ccccc3)C=C3[C@H](OC(C)=O)O[C@@H](OC(C)=O)[C@@]32[C@H](O)C[C@@H]1C
REMARK SMILES IDX 6 1 5 2 3 3 4 4 2 5 1 6 7 7 9 8 38 9 10 10 34 11 37 12 11 13
REMARK SMILES IDX 29 14 35 15 22 16 21 17 28 18 23 19 8 20 39 21 12 22 13 23
REMARK SMILES IDX 14 24 15 25 16 26 20 27 17 28 19 29 18 30 30 31 31 32 32 33
REMARK SMILES IDX 33 34 36 35 24 37 25 38 26 39 27 40
REMARK H PARENT 36 36
ROOT
ATOM      1  C   UNL     1       0.900  -2.096   0.000  1.00  0.00     0.035 C 
ENDROOT
BRANCH   1   2
ATOM      2  C   UNL     1       1.734  -3.343   0.000  1.00  0.00    -0.023 C 
BRANCH   2   3
ATOM      3  C   UNL     1       3.230  -3.244   0.000  1.00  0.00    -0.056 C 
ATOM      4  C   UNL     1       3.893  -1.899   0.000  1.00  0.00     0.044 C 
BRANCH   3   5
ATOM      5  C   UNL     1       4.064  -4.491   0.000  1.00  0.00    -0.005 C 
ATOM      6  C   UNL     1       3.401  -5.837   0.000  1.00  0.00     0.009 C 
ENDBRANCH   3   5
ENDBRANCH   2   3
ENDBRANCH   1   2
BRANCH   1   7
ATOM      7  C   UNL     1      -1.162  -1.781   0.000  1.00  0.00    -0.022 C 
ATOM      8  C   UNL     1      -0.434  -0.704   0.000  1.00  0.00     0.019 C 
ATOM      9  C   UNL     1      -1.894  -2.103   0.000  1.00  0.00    -0.005 C 
ATOM     10  C   UNL     1       0.938  -0.099   0.000  1.00  0.00     0.055 C 
ATOM     11  C   UNL     1      -1.644   0.183   0.000  1.00  0.00     0.089 C 
ATOM     12  C   UNL     1      -2.539  -1.631   0.000  1.00  0.00     0.037 C 
ATOM     13  C   UNL     1       1.101   1.392   0.000  1.00  0.00     0.200 C 
ATOM     14  C   UNL     1      -3.113  -0.123   0.000  1.00  0.00     0.327 C 
ATOM     15  C   UNL     1      -2.452  -0.835   0.000  1.00  0.00     0.131 C 
ATOM     16  C   UNL     1      -1.482   1.674   0.000  1.00  0.00     0.013 C 
ATOM     17  C   UNL     1      -0.109   2.279   0.000  1.00  0.00     0.024 C 
ATOM     18  O   UNL     1      -3.857   1.179   0.000  1.00  0.00    -0.298 OA
ATOM     19  C   UNL     1      -2.849   2.290   0.000  1.00  0.00     0.343 C 
ATOM     20  C   UNL     1      -0.240  -3.652   0.000  1.00  0.00     0.012 C 
ATOM     21  C   UNL     1      -2.133  -4.290   0.000  1.00  0.00     0.008 C 
BRANCH  13  22
ATOM     22  O   UNL     1       2.474   1.997   0.000  1.00  0.00    -0.455 OA
BRANCH  22  23
ATOM     23  C   UNL     1       3.684   1.110   0.000  1.00  0.00     0.338 C 
ATOM     24  O   UNL     1       3.521  -0.381   0.000  1.00  0.00    -0.246 OA
BRANCH  23  25
ATOM     25  C   UNL     1       5.057   1.715   0.000  1.00  0.00     0.060 A 
ATOM     26  C   UNL     1       6.267   0.828   0.000  1.00  0.00     0.015 A 
ATOM     27  C   UNL     1       5.220   3.206   0.000  1.00  0.00     0.015 A 
ATOM     28  C   UNL     1       7.639   1.433   0.000  1.00  0.00     0.001 A 
ATOM     29  C   UNL     1       6.592   3.811   0.000  1.00  0.00     0.001 A 
ATOM     30  C   UNL     1       7.802   2.924   0.000  1.00  0.00     0.000 A 
ENDBRANCH  23  25
ENDBRANCH  22  23
ENDBRANCH  13  22
BRANCH  14  31
ATOM     31  O   UNL     1      -3.728  -1.491   0.000  1.00  0.00    -0.435 OA
BRANCH  31  32
ATOM     32  C   UNL     1      -5.221  -1.642   0.000  1.00  0.00     0.304 C 
ATOM     33  C   UNL     1      -5.836  -3.010   0.000  1.00  0.00     0.139 C 
ATOM     34  O   UNL     1      -6.098  -0.425   0.000  1.00  0.00    -0.253 OA
ENDBRANCH  31  32
ENDBRANCH  14  31
BRANCH  15  35
ATOM     35  O   UNL     1      -4.406   0.146   0.000  1.00  0.00    -0.392 OA
ATOM     36  H   UNL     1       0.000   0.000   0.000  1.00  0.00     0.210 HD
ENDBRANCH  15  35
BRANCH  19  37
ATOM     37  O   UNL     1      -3.155   3.758   0.000  1.00  0.00    -0.432 OA
BRANCH  37  38
ATOM     38  C   UNL     1      -4.580   4.227   0.000  1.00  0.00     0.305 C 
ATOM     39  C   UNL     1      -4.886   5.696   0.000  1.00  0.00     0.139 C 
ATOM     40  O   UNL     1      -5.699   3.228   0.000  1.00  0.00    -0.253 OA
ENDBRANCH  37  38
ENDBRANCH  19  37
ENDBRANCH   1   7
TORSDOF 12
