REMARK SMILES CO[C@H](C(=O)O[C@H](C)[C@H](C)/C=C/C1=CC2=C(Cl)C(=O)[C@@]3(C)O[C@]4(O)[C@H](C)[C@@H](C)OC(=O)[C@@H]4[C@H]3C2=CO1)c1ccccc1
REMARK SMILES IDX 7 1 8 2 6 3 4 4 5 5 3 6 2 7 1 8 37 9 38 10 42 11 39 12 41 13
REMARK SMILES IDX 40 14 9 15 10 16 11 17 12 18 13 19 14 20 36 21 15 22 35 23
REMARK SMILES IDX 16 24 34 25 18 26 33 27 20 28 32 29 22 30 30 31 23 32 29 33
REMARK SMILES IDX 25 34 27 35 17 36 19 37 21 38 31 39 26 40 28 41 24 42
REMARK H PARENT 24 43
ROOT
ATOM      1  C   UNL     1      -4.563   3.304   0.000  1.00  0.00     0.180 C 
ATOM      2  C   UNL     1      -5.940   3.897   0.000  1.00  0.00     0.053 C 
ENDROOT
BRANCH   1   3
ATOM      3  O   UNL     1      -4.388   1.814   0.000  1.00  0.00    -0.460 OA
BRANCH   3   4
ATOM      4  C   UNL     1      -5.591   0.918   0.000  1.00  0.00     0.340 C 
ATOM      5  O   UNL     1      -6.968   1.512   0.000  1.00  0.00    -0.249 OA
BRANCH   4   6
ATOM      6  C   UNL     1      -5.417  -0.572   0.000  1.00  0.00     0.257 C 
BRANCH   6   7
ATOM      7  O   UNL     1      -4.039  -1.166   0.000  1.00  0.00    -0.365 OA
ATOM      8  C   UNL     1      -3.865  -2.655   0.000  1.00  0.00     0.196 C 
ENDBRANCH   6   7
BRANCH   6   9
ATOM      9  C   UNL     1      -6.620  -1.468   0.000  1.00  0.00    -0.008 A 
ATOM     10  C   UNL     1      -7.997  -0.874   0.000  1.00  0.00     0.007 A 
ATOM     11  C   UNL     1      -6.445  -2.958   0.000  1.00  0.00     0.007 A 
ATOM     12  C   UNL     1      -9.200  -1.770   0.000  1.00  0.00     0.000 A 
ATOM     13  C   UNL     1      -7.648  -3.854   0.000  1.00  0.00     0.000 A 
ATOM     14  C   UNL     1      -9.025  -3.260   0.000  1.00  0.00     0.000 A 
ENDBRANCH   6   9
ENDBRANCH   4   6
ENDBRANCH   3   4
ENDBRANCH   1   3
BRANCH   1  15
ATOM     15  C   UNL     1      -3.360   4.200   0.000  1.00  0.00     0.049 C 
ATOM     16  C   UNL     1      -3.534   5.690   0.000  1.00  0.00     0.016 C 
BRANCH  15  17
ATOM     17  C   UNL     1      -1.982   3.606   0.000  1.00  0.00    -0.016 C 
BRANCH  17  18
ATOM     18  C   UNL     1      -1.808   2.116   0.000  1.00  0.00     0.043 C 
BRANCH  18  19
ATOM     19  C   UNL     1      -0.430   1.522   0.000  1.00  0.00     0.126 C 
ATOM     20  C   UNL     1      -0.256   0.033   0.000  1.00  0.00     0.057 C 
ATOM     21  O   UNL     1       0.773   2.418   0.000  1.00  0.00    -0.465 OA
ATOM     22  C   UNL     1       1.122  -0.561   0.000  1.00  0.00     0.007 C 
ATOM     23  C   UNL     1       2.150   1.825   0.000  1.00  0.00     0.200 C 
ATOM     24  C   UNL     1       1.296  -2.051   0.000  1.00  0.00     0.094 C 
ATOM     25  C   UNL     1       2.325   0.335   0.000  1.00  0.00     0.004 C 
ATOM     26  C   UNL     1       2.674  -2.645   0.000  1.00  0.00     0.207 C 
ATOM     27  C   UNL     1       3.702  -0.259   0.000  1.00  0.00     0.083 C 
ATOM     28  C   UNL     1       3.877  -1.749   0.000  1.00  0.00     0.140 C 
ATOM     29  C   UNL     1       5.065   0.367   0.000  1.00  0.00     0.170 C 
ATOM     30  O   UNL     1       5.348  -2.043   0.000  1.00  0.00    -0.334 OA
ATOM     31  C   UNL     1       5.512   1.799   0.000  1.00  0.00     0.315 C 
ATOM     32  C   UNL     1       6.082  -0.735   0.000  1.00  0.00     0.187 C 
ATOM     33  O   UNL     1       6.975   2.129   0.000  1.00  0.00    -0.462 OA
ATOM     34  C   UNL     1       7.545  -0.406   0.000  1.00  0.00     0.087 C 
ATOM     35  C   UNL     1       7.992   1.026   0.000  1.00  0.00     0.181 C 
ATOM     36  Cl  UNL     1       0.093  -2.947   0.000  1.00  0.00    -0.080 Cl
ATOM     37  O   UNL     1       2.848  -4.135   0.000  1.00  0.00    -0.290 OA
ATOM     38  C   UNL     1       4.206  -3.212   0.000  1.00  0.00     0.052 C 
ATOM     39  O   UNL     1       4.495   2.902   0.000  1.00  0.00    -0.252 OA
ATOM     40  C   UNL     1       8.562  -1.509   0.000  1.00  0.00     0.017 C 
ATOM     41  C   UNL     1       9.455   1.355   0.000  1.00  0.00     0.053 C 
BRANCH  32  42
ATOM     42  O   UNL     1       6.978  -1.938   0.000  1.00  0.00    -0.364 OA
ATOM     43  H   UNL     1       0.000   0.000   0.000  1.00  0.00     0.214 HD
ENDBRANCH  32  42
ENDBRANCH  18  19
ENDBRANCH  17  18
ENDBRANCH  15  17
ENDBRANCH   1  15
TORSDOF 10
