REMARK SMILES C/C=C1\C(=O)O[C@]23C=C[C@@H]4C(C(=O)OC)=CO[C@H](O[C@@H]12)[C@@H]43
REMARK SMILES IDX 3 1 4 2 5 3 6 4 7 5 8 6 9 7 10 8 11 9 16 10 17 11 18 12
REMARK SMILES IDX 19 13 20 14 21 15 2 16 1 17 12 18 13 19 14 20 15 21
REMARK H PARENT
ROOT
ATOM      1  C   UNL     1       3.381   0.288   0.000  1.00  0.00     0.066 C 
ATOM      2  C   UNL     1       3.408  -1.212   0.000  1.00  0.00     0.337 C 
ATOM      3  O   UNL     1       4.637  -2.072   0.000  1.00  0.00    -0.246 OA
ATOM      4  O   UNL     1       1.990  -1.701   0.000  1.00  0.00    -0.448 OA
ATOM      5  C   UNL     1       1.087  -0.503   0.000  1.00  0.00     0.171 C 
ATOM      6  C   UNL     1       0.536  -1.898   0.000  1.00  0.00     0.021 C 
ATOM      7  C   UNL     1      -0.962  -1.805   0.000  1.00  0.00    -0.018 C 
ATOM      8  C   UNL     1      -1.336  -0.352   0.000  1.00  0.00     0.066 C 
ATOM      9  C   UNL     1      -2.665   0.342   0.000  1.00  0.00     0.079 C 
ATOM     10  C   UNL     1      -2.729   1.840   0.000  1.00  0.00     0.202 C 
ATOM     11  O   UNL     1      -1.463   2.645   0.000  1.00  0.00    -0.471 OA
ATOM     12  C   UNL     1      -0.134   1.951   0.000  1.00  0.00     0.315 C 
ATOM     13  O   UNL     1       1.350   2.171   0.000  1.00  0.00    -0.329 OA
ATOM     14  C   UNL     1       2.018   0.828   0.000  1.00  0.00     0.208 C 
ATOM     15  C   UNL     1      -0.070   0.452   0.000  1.00  0.00     0.121 C 
ENDROOT
BRANCH   1  16
ATOM     16  C   UNL     1       4.579   1.191   0.000  1.00  0.00    -0.016 C 
ATOM     17  C   UNL     1       5.960   0.605   0.000  1.00  0.00     0.036 C 
ENDBRANCH   1  16
BRANCH   9  18
ATOM     18  C   UNL     1      -3.931  -0.463   0.000  1.00  0.00     0.337 C 
ATOM     19  O   UNL     1      -3.868  -1.962   0.000  1.00  0.00    -0.246 OA
BRANCH  18  20
ATOM     20  O   UNL     1      -5.261   0.231   0.000  1.00  0.00    -0.466 OA
ATOM     21  C   UNL     1      -6.527  -0.574   0.000  1.00  0.00     0.282 C 
ENDBRANCH  18  20
ENDBRANCH   9  18
TORSDOF 3
