REMARK SMILES COC(=O)C1=CO[C@@H](O[C@@H]2O[C@H](CO)[C@@H](O)[C@H](O)[C@H]2O)[C@H]2[C@@H]1C=C[C@]2(O)C(=O)OC
REMARK SMILES IDX 9 1 8 2 5 3 6 4 22 5 7 6 21 7 23 8 25 9 24 10 3 11 4 12 2 13
REMARK SMILES IDX 1 14 26 15 27 17 28 18 29 19 30 20 10 21 11 22 19 23 12 24
REMARK SMILES IDX 17 25 15 26 20 27 13 29 14 30 18 32 16 34
REMARK H PARENT 26 16 20 28 14 31 18 33 16 35
ROOT
ATOM      1  O   UNL     1       0.901   0.921   0.000  1.00  0.00    -0.310 OA
ENDROOT
BRANCH   1   2
ATOM      2  C   UNL     1      -0.282  -0.000   0.000  1.00  0.00     0.316 C 
ATOM      3  C   UNL     1      -2.649  -1.843   0.000  1.00  0.00     0.079 C 
ATOM      4  C   UNL     1      -1.260  -2.408   0.000  1.00  0.00     0.202 C 
ATOM      5  C   UNL     1      -2.856  -0.358   0.000  1.00  0.00     0.065 C 
ATOM      6  O   UNL     1      -0.076  -1.486   0.000  1.00  0.00    -0.471 OA
ATOM      7  C   UNL     1      -1.672   0.564   0.000  1.00  0.00     0.117 C 
ATOM      8  C   UNL     1      -4.098   0.483   0.000  1.00  0.00    -0.018 C 
ATOM      9  C   UNL     1      -2.183   1.974   0.000  1.00  0.00     0.190 C 
ATOM     10  C   UNL     1      -3.682   1.924   0.000  1.00  0.00     0.016 C 
BRANCH   3  11
ATOM     11  C   UNL     1      -3.833  -2.765   0.000  1.00  0.00     0.337 C 
ATOM     12  O   UNL     1      -5.223  -2.201   0.000  1.00  0.00    -0.246 OA
BRANCH  11  13
ATOM     13  O   UNL     1      -3.627  -4.251   0.000  1.00  0.00    -0.466 OA
ATOM     14  C   UNL     1      -4.810  -5.172   0.000  1.00  0.00     0.282 C 
ENDBRANCH  11  13
ENDBRANCH   3  11
BRANCH   9  15
ATOM     15  O   UNL     1      -0.727   2.335   0.000  1.00  0.00    -0.374 OA
ATOM     16  H   UNL     1       0.000   0.000   0.000  1.00  0.00     0.212 HD
ENDBRANCH   9  15
BRANCH   9  17
ATOM     17  C   UNL     1      -2.389   3.460   0.000  1.00  0.00     0.342 C 
ATOM     18  O   UNL     1      -3.779   4.024   0.000  1.00  0.00    -0.248 OA
BRANCH  17  19
ATOM     19  O   UNL     1      -1.206   4.382   0.000  1.00  0.00    -0.467 OA
ATOM     20  C   UNL     1      -1.412   5.867   0.000  1.00  0.00     0.282 C 
ENDBRANCH  17  19
ENDBRANCH   9  17
ENDBRANCH   1   2
BRANCH   1  21
ATOM     21  C   UNL     1       2.291   0.357   0.000  1.00  0.00     0.286 C 
ATOM     22  O   UNL     1       2.497  -1.128   0.000  1.00  0.00    -0.341 OA
ATOM     23  C   UNL     1       3.474   1.279   0.000  1.00  0.00     0.202 C 
ATOM     24  C   UNL     1       3.887  -1.692   0.000  1.00  0.00     0.178 C 
ATOM     25  C   UNL     1       4.864   0.715   0.000  1.00  0.00     0.179 C 
ATOM     26  C   UNL     1       5.071  -0.771   0.000  1.00  0.00     0.177 C 
BRANCH  23  27
ATOM     27  O   UNL     1       3.268   2.765   0.000  1.00  0.00    -0.385 OA
ATOM     28  H   UNL     1       0.000   0.000   0.000  1.00  0.00     0.211 HD
ENDBRANCH  23  27
BRANCH  24  29
ATOM     29  C   UNL     1       4.094  -3.178   0.000  1.00  0.00     0.191 C 
BRANCH  29  30
ATOM     30  O   UNL     1       2.910  -4.100   0.000  1.00  0.00    -0.394 OA
ATOM     31  H   UNL     1       0.000   0.000   0.000  1.00  0.00     0.210 HD
ENDBRANCH  29  30
ENDBRANCH  24  29
BRANCH  25  32
ATOM     32  O   UNL     1       6.048   1.636   0.000  1.00  0.00    -0.387 OA
ATOM     33  H   UNL     1       0.000   0.000   0.000  1.00  0.00     0.211 HD
ENDBRANCH  25  32
BRANCH  26  34
ATOM     34  O   UNL     1       6.460  -1.335   0.000  1.00  0.00    -0.387 OA
ATOM     35  H   UNL     1       0.000   0.000   0.000  1.00  0.00     0.211 HD
ENDBRANCH  26  34
ENDBRANCH   1  21
TORSDOF 12
