REMARK SMILES C=CCC1=C[C@]2(OC)C(=O)[C@@H](C1=O)[C@H](c1cc(OC)c(OC)c(OC)c1)[C@H]2C
REMARK SMILES IDX 4 1 5 2 6 3 9 4 10 5 11 6 12 7 13 8 14 9 27 10 28 11 3 12
REMARK SMILES IDX 2 13 1 14 7 15 8 16 15 17 16 18 26 19 17 20 23 21 20 22
REMARK SMILES IDX 18 23 19 24 24 25 25 26 21 27 22 28
REMARK H PARENT
ROOT
ATOM      1  C   UNL     1      -3.864  -0.791   0.000  1.00  0.00    -0.001 C 
ATOM      2  C   UNL     1      -3.779   0.706   0.000  1.00  0.00     0.024 C 
ATOM      3  C   UNL     1      -2.439   1.381   0.000  1.00  0.00     0.148 C 
ATOM      4  C   UNL     1      -1.185   0.558   0.000  1.00  0.00     0.180 C 
ATOM      5  O   UNL     1       0.155   1.233   0.000  1.00  0.00    -0.295 OA
ATOM      6  C   UNL     1      -1.270  -0.940   0.000  1.00  0.00     0.139 C 
ATOM      7  C   UNL     1      -2.610  -1.614   0.000  1.00  0.00     0.170 C 
ATOM      8  O   UNL     1      -2.696  -3.112   0.000  1.00  0.00    -0.294 OA
ATOM      9  C   UNL     1      -0.205   0.116   0.000  1.00  0.00     0.044 C 
ATOM     10  C   UNL     1      -0.879   1.456   0.000  1.00  0.00     0.038 C 
ATOM     11  C   UNL     1      -0.192   2.789   0.000  1.00  0.00     0.012 C 
ENDROOT
BRANCH   1  12
ATOM     12  C   UNL     1      -5.204  -1.466   0.000  1.00  0.00     0.065 C 
BRANCH  12  13
ATOM     13  C   UNL     1      -6.458  -0.643   0.000  1.00  0.00    -0.030 C 
ATOM     14  C   UNL     1      -7.798  -1.318   0.000  1.00  0.00     0.004 C 
ENDBRANCH  12  13
ENDBRANCH   1  12
BRANCH   3  15
ATOM     15  O   UNL     1      -2.354   2.878   0.000  1.00  0.00    -0.366 OA
ATOM     16  C   UNL     1      -3.608   3.701   0.000  1.00  0.00     0.196 C 
ENDBRANCH   3  15
BRANCH   9  17
ATOM     17  C   UNL     1       1.276  -0.125   0.000  1.00  0.00    -0.036 A 
ATOM     18  C   UNL     1       1.807  -1.528   0.000  1.00  0.00     0.054 A 
ATOM     19  C   UNL     1       2.225   1.036   0.000  1.00  0.00     0.054 A 
ATOM     20  C   UNL     1       3.287  -1.770   0.000  1.00  0.00     0.164 A 
ATOM     21  C   UNL     1       3.705   0.794   0.000  1.00  0.00     0.164 A 
ATOM     22  C   UNL     1       4.237  -0.609   0.000  1.00  0.00     0.203 A 
BRANCH  20  23
ATOM     23  O   UNL     1       3.818  -3.173   0.000  1.00  0.00    -0.493 OA
ATOM     24  C   UNL     1       2.869  -4.334   0.000  1.00  0.00     0.278 C 
ENDBRANCH  20  23
BRANCH  21  25
ATOM     25  O   UNL     1       4.655   1.956   0.000  1.00  0.00    -0.493 OA
ATOM     26  C   UNL     1       4.124   3.359   0.000  1.00  0.00     0.278 C 
ENDBRANCH  21  25
BRANCH  22  27
ATOM     27  O   UNL     1       5.717  -0.850   0.000  1.00  0.00    -0.490 OA
ATOM     28  C   UNL     1       6.666   0.311   0.000  1.00  0.00     0.278 C 
ENDBRANCH  22  27
ENDBRANCH   9  17
TORSDOF 7
