REMARK SMILES CC1=C(C)[C@H]2[C@H](Cc3c[nH]c4ccccc34)NC(=O)[C@]23C(=O)/C=C\C(=O)[C@@H](O)/C(C)=C\[C@H](C)CC=C[C@H]3[C@@H]1O
REMARK SMILES IDX 1 1 2 2 3 3 4 4 5 5 6 6 17 7 18 8 19 9 20 10 37 11 38 12
REMARK SMILES IDX 39 14 36 16 35 17 34 18 32 19 33 20 31 21 29 22 30 23 7 25
REMARK SMILES IDX 8 26 9 27 16 28 10 29 15 30 11 31 14 32 12 33 13 34 21 36
REMARK SMILES IDX 22 37 23 38 24 39 25 40 26 41 27 42 28 44
REMARK H PARENT 17 13 39 15 10 35 28 45
REMARK Flexibility Score:   35.900
ROOT
ATOM      1  C   UNL     1       0.252   5.793   0.000  1.00  0.00     0.042 C 
ATOM      2  C   UNL     1      -0.035   4.321   0.000  1.00  0.00    -0.045 C 
ATOM      3  C   UNL     1       1.097   3.337   0.000  1.00  0.00    -0.065 C 
ATOM      4  C   UNL     1       2.515   3.825   0.000  1.00  0.00     0.040 C 
ATOM      5  C   UNL     1       0.810   1.864   0.000  1.00  0.00     0.062 C 
ATOM      6  C   UNL     1       1.712   0.666   0.000  1.00  0.00     0.095 C 
ATOM      7  N   UNL     1       0.852  -0.562   0.000  1.00  0.00    -0.351 N 
ATOM      8  C   UNL     1      -0.583  -0.123   0.000  1.00  0.00     0.235 C 
ATOM      9  O   UNL     1      -1.219  -0.603   0.000  1.00  0.00    -0.274 OA
ATOM     10  C   UNL     1      -0.608   1.377   0.000  1.00  0.00     0.129 C 
ATOM     11  C   UNL     1      -1.740   2.361   0.000  1.00  0.00     0.068 C 
ATOM     12  C   UNL     1      -1.453   3.833   0.000  1.00  0.00     0.148 C 
ATOM     13  H   UNL     1       0.000   0.000   0.000  1.00  0.00     0.163 HD
ENDROOT
BRANCH  12  14
ATOM     14  O   UNL     1      -2.585   4.818   0.000  1.00  0.00    -0.388 OA
ATOM     15  H   UNL     1       0.000   0.000   0.000  1.00  0.00     0.211 HD
ENDBRANCH  12  14
BRANCH  11  16
ATOM     16  C   UNL     1      -2.507   2.144   0.000  1.00  0.00    -0.023 C 
BRANCH  16  17
ATOM     17  C   UNL     1      -3.991   1.101   0.000  1.00  0.00    -0.030 C 
BRANCH  17  18
ATOM     18  C   UNL     1      -4.607   0.545   0.000  1.00  0.00     0.034 C 
BRANCH  18  19
ATOM     19  C   UNL     1      -4.894  -0.234   0.000  1.00  0.00     0.012 C 
ATOM     20  C   UNL     1      -7.776   0.089   0.000  1.00  0.00     0.012 C 
BRANCH  19  21
ATOM     21  C   UNL     1      -4.787  -1.057   0.000  1.00  0.00    -0.021 C 
BRANCH  21  22
ATOM     22  C   UNL     1      -4.309  -1.736   0.000  1.00  0.00    -0.041 CG0
ATOM     23  C   UNL     1      -6.212  -3.924   0.000  1.00  0.00     0.042 C 
ATOM     24  G   UNL     1      -3.571  -2.115   0.000  1.00  0.00     0.000 G0
ENDBRANCH  21  22
ENDBRANCH  19  21
ENDBRANCH  18  19
ENDBRANCH  17  18
ENDBRANCH  16  17
ENDBRANCH  11  16
BRANCH   6  25
ATOM     25  C   UNL     1       3.212   0.692   0.000  1.00  0.00     0.063 C 
BRANCH  25  26
ATOM     26  C   UNL     1       3.985  -0.594   0.000  1.00  0.00    -0.021 A 
ATOM     27  C   UNL     1       3.398  -1.975   0.000  1.00  0.00     0.087 A 
ATOM     28  C   UNL     1       5.479  -0.725   0.000  1.00  0.00     0.003 A 
ATOM     29  N   UNL     1       4.530  -2.959   0.000  1.00  0.00    -0.361 N 
ATOM     30  C   UNL     1       6.576   0.297   0.000  1.00  0.00     0.010 A 
ATOM     31  C   UNL     1       5.816  -2.187   0.000  1.00  0.00     0.046 A 
ATOM     32  C   UNL     1       8.010  -0.141   0.000  1.00  0.00     0.001 A 
ATOM     33  C   UNL     1       7.250  -2.626   0.000  1.00  0.00     0.026 A 
ATOM     34  C   UNL     1       8.347  -1.603   0.000  1.00  0.00     0.002 A 
ATOM     35  H   UNL     1       0.000   0.000   0.000  1.00  0.00     0.166 HD
ENDBRANCH  25  26
ENDBRANCH   6  25
BRANCH  10  36
ATOM     36  C   UNL     1      -0.716   0.587   0.000  1.00  0.00     0.172 C 
ATOM     37  O   UNL     1       0.309   0.214   0.000  1.00  0.00    -0.294 OA
BRANCH  36  38
ATOM     38  C   UNL     1      -1.544  -1.027   0.000  1.00  0.00     0.052 C 
BRANCH  38  39
ATOM     39  C   UNL     1      -2.010  -1.715   0.000  1.00  0.00     0.054 C 
BRANCH  39  40
ATOM     40  C   UNL     1      -2.741  -2.107   0.000  1.00  0.00     0.188 C 
ATOM     41  O   UNL     1      -2.021  -4.916   0.000  1.00  0.00    -0.292 OA
BRANCH  40  42
ATOM     42  C   UNL     1      -3.571  -2.115   0.000  1.00  0.00     0.211 CG0
ATOM     43  G   UNL     1      -4.309  -1.736   0.000  1.00  0.00     0.000 G0
BRANCH  42  44
ATOM     44  O   UNL     1      -4.239  -4.936   0.000  1.00  0.00    -0.381 OA
ATOM     45  H   UNL     1       0.000   0.000   0.000  1.00  0.00     0.212 HD
ENDBRANCH  42  44
ENDBRANCH  40  42
ENDBRANCH  39  40
ENDBRANCH  38  39
ENDBRANCH  36  38
ENDBRANCH  10  36
TORSDOF 4
