REMARK SMILES O=C(O)CCCCCCCCCCCCCCc1ccc2c(c1)OCO2
REMARK SMILES IDX 9 1 8 2 7 3 6 4 5 5 4 6 2 7 1 8 3 9 10 11 11 12 12 13 13 14
REMARK SMILES IDX 14 15 15 16 16 17 17 18 18 19 19 20 23 21 20 22 22 23 21 24
REMARK SMILES IDX 24 25 26 26 25 27
REMARK H PARENT 3 10
ROOT
ATOM      1  C   UNL     1       4.979   0.381   0.000  1.00  0.00     0.000 C 
ENDROOT
BRANCH   1   2
ATOM      2  C   UNL     1       6.228  -0.449   0.000  1.00  0.00     0.000 C 
BRANCH   2   3
ATOM      3  C   UNL     1       7.572   0.218   0.000  1.00  0.00     0.000 C 
BRANCH   3   4
ATOM      4  C   UNL     1       8.821  -0.612   0.000  1.00  0.00     0.001 C 
BRANCH   4   5
ATOM      5  C   UNL     1      10.165   0.055   0.000  1.00  0.00     0.012 C 
BRANCH   5   6
ATOM      6  C   UNL     1      11.414  -0.775   0.000  1.00  0.00     0.122 C 
BRANCH   6   7
ATOM      7  C   UNL     1      12.758  -0.108   0.000  1.00  0.00     0.303 C 
ATOM      8  O   UNL     1      12.852   1.389   0.000  1.00  0.00    -0.252 OA
BRANCH   7   9
ATOM      9  O   UNL     1      14.007  -0.938   0.000  1.00  0.00    -0.481 OA
ATOM     10  H   UNL     1       0.000   0.000   0.000  1.00  0.00     0.296 HD
ENDBRANCH   7   9
ENDBRANCH   6   7
ENDBRANCH   5   6
ENDBRANCH   4   5
ENDBRANCH   3   4
ENDBRANCH   2   3
ENDBRANCH   1   2
BRANCH   1  11
ATOM     11  C   UNL     1       3.635  -0.286   0.000  1.00  0.00     0.000 C 
BRANCH  11  12
ATOM     12  C   UNL     1       2.386   0.544   0.000  1.00  0.00     0.000 C 
BRANCH  12  13
ATOM     13  C   UNL     1       1.042  -0.123   0.000  1.00  0.00     0.000 C 
BRANCH  13  14
ATOM     14  C   UNL     1      -0.207   0.707   0.000  1.00  0.00     0.000 C 
BRANCH  14  15
ATOM     15  C   UNL     1      -1.551   0.040   0.000  1.00  0.00     0.000 C 
BRANCH  15  16
ATOM     16  C   UNL     1      -2.800   0.870   0.000  1.00  0.00     0.000 C 
BRANCH  16  17
ATOM     17  C   UNL     1      -4.144   0.203   0.000  1.00  0.00     0.005 C 
BRANCH  17  18
ATOM     18  C   UNL     1      -5.393   1.032   0.000  1.00  0.00     0.035 C 
BRANCH  18  19
ATOM     19  C   UNL     1      -6.737   0.365   0.000  1.00  0.00    -0.044 A 
ATOM     20  C   UNL     1      -6.831  -1.132   0.000  1.00  0.00     0.008 A 
ATOM     21  C   UNL     1      -7.986   1.195   0.000  1.00  0.00     0.054 A 
ATOM     22  C   UNL     1      -8.174  -1.799   0.000  1.00  0.00     0.051 A 
ATOM     23  C   UNL     1      -9.330   0.528   0.000  1.00  0.00     0.166 A 
ATOM     24  C   UNL     1      -9.424  -0.969   0.000  1.00  0.00     0.165 A 
ATOM     25  O   UNL     1     -10.724   1.080   0.000  1.00  0.00    -0.454 OA
ATOM     26  O   UNL     1     -10.877  -1.342   0.000  1.00  0.00    -0.454 OA
ATOM     27  C   UNL     1     -11.680  -0.075   0.000  1.00  0.00     0.468 C 
ENDBRANCH  18  19
ENDBRANCH  17  18
ENDBRANCH  16  17
ENDBRANCH  15  16
ENDBRANCH  14  15
ENDBRANCH  13  14
ENDBRANCH  12  13
ENDBRANCH  11  12
ENDBRANCH   1  11
TORSDOF 16
