REMARK SMILES C=C(C)C1CC(CC2(CC=C(C)C)C(=O)C(C(CCC)CC(=O)OC)=C3O[C@H](C)[C@@H](C)C(=O)C3=C2OC)C1(C)C
REMARK SMILES IDX 8 1 14 2 15 3 16 4 26 5 27 6 28 7 29 8 30 9 31 10 32 11
REMARK SMILES IDX 33 12 34 13 35 14 7 15 6 16 4 17 5 18 38 19 39 20 40 21 2 22
REMARK SMILES IDX 1 23 3 24 9 25 10 26 11 27 12 28 13 29 36 30 37 31 17 32
REMARK SMILES IDX 18 33 19 34 20 35 21 36 22 37 23 38 24 39 25 40
REMARK H PARENT
ROOT
ATOM      1  C   UNL     1      -0.714  -0.080   0.000  1.00  0.00     0.095 C 
ATOM      2  C   UNL     1       0.461  -1.013   0.000  1.00  0.00     0.176 C 
ATOM      3  O   UNL     1       0.239  -2.497   0.000  1.00  0.00    -0.293 OA
ATOM      4  C   UNL     1       1.856  -0.463   0.000  1.00  0.00     0.043 C 
ATOM      5  C   UNL     1       2.077   1.020   0.000  1.00  0.00     0.141 C 
ATOM      6  O   UNL     1       3.473   1.571   0.000  1.00  0.00    -0.489 OA
ATOM      7  C   UNL     1       3.694   3.054   0.000  1.00  0.00     0.180 C 
ATOM      8  C   UNL     1       5.090   3.604   0.000  1.00  0.00     0.053 C 
ATOM      9  C   UNL     1       2.520   3.988   0.000  1.00  0.00     0.099 C 
ATOM     10  C   UNL     1       2.741   5.471   0.000  1.00  0.00     0.020 C 
ATOM     11  C   UNL     1       1.125   3.438   0.000  1.00  0.00     0.176 C 
ATOM     12  O   UNL     1      -0.050   4.371   0.000  1.00  0.00    -0.293 OA
ATOM     13  C   UNL     1       0.903   1.954   0.000  1.00  0.00     0.099 C 
ATOM     14  C   UNL     1      -0.492   1.404   0.000  1.00  0.00     0.124 C 
ENDROOT
BRANCH   1  15
ATOM     15  C   UNL     1      -1.429  -1.398   0.000  1.00  0.00     0.028 C 
BRANCH  15  16
ATOM     16  C   UNL     1      -2.929  -1.438   0.000  1.00  0.00    -0.003 C 
ATOM     17  C   UNL     1      -5.049  -1.494   0.000  1.00  0.00     0.020 C 
ATOM     18  C   UNL     1      -4.017  -0.405   0.000  1.00  0.00     0.012 C 
ATOM     19  C   UNL     1      -3.961  -2.526   0.000  1.00  0.00    -0.026 C 
ATOM     20  C   UNL     1      -2.873  -3.558   0.000  1.00  0.00     0.012 C 
ATOM     21  C   UNL     1      -4.993  -3.614   0.000  1.00  0.00     0.012 C 
BRANCH  17  22
ATOM     22  C   UNL     1      -6.549  -1.533   0.000  1.00  0.00    -0.077 C 
ATOM     23  C   UNL     1      -7.264  -2.852   0.000  1.00  0.00     0.008 C 
ATOM     24  C   UNL     1      -7.333  -0.254   0.000  1.00  0.00     0.039 C 
ENDBRANCH  17  22
ENDBRANCH  15  16
ENDBRANCH   1  15
BRANCH   1  25
ATOM     25  C   UNL     1      -2.136   0.396   0.000  1.00  0.00     0.050 C 
BRANCH  25  26
ATOM     26  C   UNL     1      -2.436   1.866   0.000  1.00  0.00    -0.027 C 
BRANCH  26  27
ATOM     27  C   UNL     1      -3.858   2.341   0.000  1.00  0.00    -0.080 C 
ATOM     28  C   UNL     1      -4.158   3.811   0.000  1.00  0.00     0.039 C 
ATOM     29  C   UNL     1      -4.981   1.347   0.000  1.00  0.00     0.039 C 
ENDBRANCH  26  27
ENDBRANCH  25  26
ENDBRANCH   1  25
BRANCH  14  30
ATOM     30  O   UNL     1      -1.666   2.337   0.000  1.00  0.00    -0.499 OA
ATOM     31  C   UNL     1      -1.445   3.821   0.000  1.00  0.00     0.278 C 
ENDBRANCH  14  30
BRANCH   4  32
ATOM     32  C   UNL     1       3.030  -1.397   0.000  1.00  0.00     0.038 C 
BRANCH  32  33
ATOM     33  C   UNL     1       2.809  -2.880   0.000  1.00  0.00     0.009 C 
BRANCH  33  34
ATOM     34  C   UNL     1       3.983  -3.814   0.000  1.00  0.00    -0.003 C 
ATOM     35  C   UNL     1       3.761  -5.297   0.000  1.00  0.00     0.004 C 
ENDBRANCH  33  34
ENDBRANCH  32  33
BRANCH  32  36
ATOM     36  C   UNL     1       4.426  -0.847   0.000  1.00  0.00     0.131 C 
BRANCH  36  37
ATOM     37  C   UNL     1       5.600  -1.780   0.000  1.00  0.00     0.306 C 
ATOM     38  O   UNL     1       5.378  -3.264   0.000  1.00  0.00    -0.252 OA
BRANCH  37  39
ATOM     39  O   UNL     1       6.995  -1.230   0.000  1.00  0.00    -0.469 OA
ATOM     40  C   UNL     1       8.169  -2.163   0.000  1.00  0.00     0.282 C 
ENDBRANCH  37  39
ENDBRANCH  36  37
ENDBRANCH  32  36
ENDBRANCH   4  32
TORSDOF 13
