REMARK SMILES O=C1C(=Cc2ccc(O)c(O)c2)Oc2cc(O)ccc21
REMARK SMILES IDX 4 1 3 2 2 3 20 4 13 5 19 6 14 7 18 8 15 9 16 10 1 11 17 12
REMARK SMILES IDX 5 14 6 15 12 16 7 17 10 18 8 19 11 20 9 22
REMARK H PARENT 17 13 11 21 9 23
ROOT
ATOM      1  C   UNL     1      -0.886  -1.724   0.000  1.00  0.00     0.059 C 
ENDROOT
BRANCH   1   2
ATOM      2  C   UNL     1       0.489  -1.125   0.000  1.00  0.00     0.176 C 
ATOM      3  C   UNL     1       0.812   0.340   0.000  1.00  0.00     0.231 C 
ATOM      4  C   UNL     1       2.305   0.486   0.000  1.00  0.00     0.069 A 
ATOM      5  O   UNL     1       1.782  -1.884   0.000  1.00  0.00    -0.452 OA
ATOM      6  C   UNL     1       3.196   1.693   0.000  1.00  0.00     0.020 A 
ATOM      7  C   UNL     1       2.904  -0.889   0.000  1.00  0.00     0.142 A 
ATOM      8  C   UNL     1       4.686   1.524   0.000  1.00  0.00     0.047 A 
ATOM      9  C   UNL     1       4.395  -1.057   0.000  1.00  0.00     0.094 A 
ATOM     10  C   UNL     1       5.286   0.150   0.000  1.00  0.00     0.119 A 
ATOM     11  O   UNL     1      -0.183   1.463   0.000  1.00  0.00    -0.285 OA
BRANCH  10  12
ATOM     12  O   UNL     1       6.776  -0.018   0.000  1.00  0.00    -0.508 OA
ATOM     13  H   UNL     1       0.000   0.000   0.000  1.00  0.00     0.293 HD
ENDBRANCH  10  12
ENDBRANCH   1   2
BRANCH   1  14
ATOM     14  C   UNL     1      -2.093  -0.833   0.000  1.00  0.00    -0.018 A 
ATOM     15  C   UNL     1      -1.925   0.657   0.000  1.00  0.00     0.012 A 
ATOM     16  C   UNL     1      -3.468  -1.433   0.000  1.00  0.00     0.058 A 
ATOM     17  C   UNL     1      -3.132   1.548   0.000  1.00  0.00     0.051 A 
ATOM     18  C   UNL     1      -4.675  -0.542   0.000  1.00  0.00     0.157 A 
ATOM     19  C   UNL     1      -4.506   0.948   0.000  1.00  0.00     0.157 A 
BRANCH  18  20
ATOM     20  O   UNL     1      -6.050  -1.142   0.000  1.00  0.00    -0.504 OA
ATOM     21  H   UNL     1       0.000   0.000   0.000  1.00  0.00     0.293 HD
ENDBRANCH  18  20
BRANCH  19  22
ATOM     22  O   UNL     1      -5.713   1.839   0.000  1.00  0.00    -0.504 OA
ATOM     23  H   UNL     1       0.000   0.000   0.000  1.00  0.00     0.293 HD
ENDBRANCH  19  22
ENDBRANCH   1  14
TORSDOF 5
