REMARK SMILES COc1ccc(-c2coc3cc(O)cc(O)c3c2=O)cc1O
REMARK SMILES IDX 7 1 8 2 9 3 10 4 11 5 12 6 14 7 15 8 17 9 18 10 19 11 6 12
REMARK SMILES IDX 3 13 4 14 21 15 5 16 20 17 2 18 1 19 22 20 16 22 13 24
REMARK H PARENT 22 21 16 23 13 25
ROOT
ATOM      1  C   UNL     1      -0.102  -0.582   0.000  1.00  0.00     0.065 A 
ATOM      2  C   UNL     1       0.411  -1.991   0.000  1.00  0.00     0.208 A 
ATOM      3  O   UNL     1       1.888  -2.251   0.000  1.00  0.00    -0.463 OA
ATOM      4  C   UNL     1       2.852  -1.102   0.000  1.00  0.00     0.145 A 
ATOM      5  C   UNL     1       4.330  -1.362   0.000  1.00  0.00     0.094 A 
ATOM      6  C   UNL     1       5.293  -0.212   0.000  1.00  0.00     0.123 A 
ATOM      7  C   UNL     1       4.780   1.197   0.000  1.00  0.00     0.093 A 
ATOM      8  C   UNL     1       3.303   1.457   0.000  1.00  0.00     0.134 A 
ATOM      9  C   UNL     1       2.339   0.308   0.000  1.00  0.00     0.107 A 
ATOM     10  C   UNL     1       0.862   0.568   0.000  1.00  0.00     0.204 A 
ATOM     11  O   UNL     1       0.348   1.977   0.000  1.00  0.00    -0.288 OA
ENDROOT
BRANCH   1  12
ATOM     12  C   UNL     1      -1.580  -0.322   0.000  1.00  0.00    -0.007 A 
ATOM     13  C   UNL     1      -4.534   0.199   0.000  1.00  0.00     0.160 A 
ATOM     14  C   UNL     1      -3.570   1.348   0.000  1.00  0.00     0.051 A 
ATOM     15  C   UNL     1      -4.021  -1.211   0.000  1.00  0.00     0.158 A 
ATOM     16  C   UNL     1      -2.093   1.088   0.000  1.00  0.00     0.013 A 
ATOM     17  C   UNL     1      -2.543  -1.471   0.000  1.00  0.00     0.059 A 
BRANCH  13  18
ATOM     18  O   UNL     1      -6.011   0.459   0.000  1.00  0.00    -0.493 OA
ATOM     19  C   UNL     1      -6.525   1.868   0.000  1.00  0.00     0.278 C 
ENDBRANCH  13  18
BRANCH  15  20
ATOM     20  O   UNL     1      -4.985  -2.360   0.000  1.00  0.00    -0.504 OA
ATOM     21  H   UNL     1       0.000   0.000   0.000  1.00  0.00     0.293 HD
ENDBRANCH  15  20
ENDBRANCH   1  12
BRANCH   8  22
ATOM     22  O   UNL     1       2.789   2.866   0.000  1.00  0.00    -0.507 OA
ATOM     23  H   UNL     1       0.000   0.000   0.000  1.00  0.00     0.293 HD
ENDBRANCH   8  22
BRANCH   6  24
ATOM     24  O   UNL     1       6.771  -0.472   0.000  1.00  0.00    -0.508 OA
ATOM     25  H   UNL     1       0.000   0.000   0.000  1.00  0.00     0.293 HD
ENDBRANCH   6  24
TORSDOF 5
