REMARK SMILES C=C(C)CCC(CC1(CC=C(C)C)C(=O)C(C(CCC)CC(=O)OC)=C2O[C@H](C)[C@@H](C)C(=O)C2=C1OC)C(=C)C
REMARK SMILES IDX 8 1 14 2 15 3 16 4 26 5 27 6 28 7 29 8 30 9 31 10 32 11
REMARK SMILES IDX 33 12 34 13 35 14 7 15 6 16 5 17 4 18 2 19 1 20 3 21 38 22
REMARK SMILES IDX 39 23 40 24 9 25 10 26 11 27 12 28 13 29 36 30 37 31 17 32
REMARK SMILES IDX 18 33 19 34 20 35 21 36 22 37 23 38 24 39 25 40
REMARK H PARENT
ROOT
ATOM      1  C   UNL     1      -0.923   0.450   0.000  1.00  0.00     0.095 C 
ATOM      2  C   UNL     1       0.185  -0.561   0.000  1.00  0.00     0.176 C 
ATOM      3  O   UNL     1      -0.137  -2.026   0.000  1.00  0.00    -0.293 OA
ATOM      4  C   UNL     1       1.614  -0.107   0.000  1.00  0.00     0.043 C 
ATOM      5  C   UNL     1       1.936   1.358   0.000  1.00  0.00     0.141 C 
ATOM      6  O   UNL     1       3.366   1.812   0.000  1.00  0.00    -0.489 OA
ATOM      7  C   UNL     1       3.688   3.277   0.000  1.00  0.00     0.180 C 
ATOM      8  C   UNL     1       5.117   3.731   0.000  1.00  0.00     0.053 C 
ATOM      9  C   UNL     1       2.580   4.288   0.000  1.00  0.00     0.099 C 
ATOM     10  C   UNL     1       2.901   5.753   0.000  1.00  0.00     0.020 C 
ATOM     11  C   UNL     1       1.150   3.834   0.000  1.00  0.00     0.176 C 
ATOM     12  O   UNL     1       0.042   4.845   0.000  1.00  0.00    -0.293 OA
ATOM     13  C   UNL     1       0.828   2.369   0.000  1.00  0.00     0.099 C 
ATOM     14  C   UNL     1      -0.602   1.915   0.000  1.00  0.00     0.124 C 
ENDROOT
BRANCH   1  15
ATOM     15  C   UNL     1      -2.310   1.021   0.000  1.00  0.00     0.031 C 
BRANCH  15  16
ATOM     16  C   UNL     1      -3.498   0.106   0.000  1.00  0.00     0.016 C 
BRANCH  16  17
ATOM     17  C   UNL     1      -4.885   0.677   0.000  1.00  0.00     0.012 C 
BRANCH  17  18
ATOM     18  C   UNL     1      -6.074  -0.238   0.000  1.00  0.00     0.030 C 
BRANCH  18  19
ATOM     19  C   UNL     1      -7.461   0.333   0.000  1.00  0.00    -0.080 C 
ATOM     20  C   UNL     1      -7.659   1.819   0.000  1.00  0.00     0.007 C 
ATOM     21  C   UNL     1      -8.649  -0.583   0.000  1.00  0.00     0.039 C 
ENDBRANCH  18  19
ENDBRANCH  17  18
ENDBRANCH  16  17
BRANCH  16  22
ATOM     22  C   UNL     1      -3.300  -1.381   0.000  1.00  0.00    -0.077 C 
ATOM     23  C   UNL     1      -1.913  -1.952   0.000  1.00  0.00     0.008 C 
ATOM     24  C   UNL     1      -4.488  -2.297   0.000  1.00  0.00     0.039 C 
ENDBRANCH  16  22
ENDBRANCH  15  16
ENDBRANCH   1  15
BRANCH   1  25
ATOM     25  C   UNL     1      -1.727  -0.817   0.000  1.00  0.00     0.050 C 
BRANCH  25  26
ATOM     26  C   UNL     1      -1.031  -2.146   0.000  1.00  0.00    -0.027 C 
BRANCH  26  27
ATOM     27  C   UNL     1      -1.835  -3.413   0.000  1.00  0.00    -0.080 C 
ATOM     28  C   UNL     1      -1.140  -4.742   0.000  1.00  0.00     0.039 C 
ATOM     29  C   UNL     1      -3.333  -3.350   0.000  1.00  0.00     0.039 C 
ENDBRANCH  26  27
ENDBRANCH  25  26
ENDBRANCH   1  25
BRANCH  14  30
ATOM     30  O   UNL     1      -1.710   2.926   0.000  1.00  0.00    -0.499 OA
ATOM     31  C   UNL     1      -1.388   4.391   0.000  1.00  0.00     0.278 C 
ENDBRANCH  14  30
BRANCH   4  32
ATOM     32  C   UNL     1       2.722  -1.119   0.000  1.00  0.00     0.038 C 
BRANCH  32  33
ATOM     33  C   UNL     1       2.401  -2.584   0.000  1.00  0.00     0.009 C 
BRANCH  33  34
ATOM     34  C   UNL     1       3.509  -3.595   0.000  1.00  0.00    -0.003 C 
ATOM     35  C   UNL     1       3.187  -5.060   0.000  1.00  0.00     0.004 C 
ENDBRANCH  33  34
ENDBRANCH  32  33
BRANCH  32  36
ATOM     36  C   UNL     1       4.152  -0.665   0.000  1.00  0.00     0.131 C 
BRANCH  36  37
ATOM     37  C   UNL     1       5.260  -1.676   0.000  1.00  0.00     0.306 C 
ATOM     38  O   UNL     1       4.938  -3.141   0.000  1.00  0.00    -0.252 OA
BRANCH  37  39
ATOM     39  O   UNL     1       6.690  -1.222   0.000  1.00  0.00    -0.469 OA
ATOM     40  C   UNL     1       7.798  -2.233   0.000  1.00  0.00     0.282 C 
ENDBRANCH  37  39
ENDBRANCH  36  37
ENDBRANCH  32  36
ENDBRANCH   4  32
TORSDOF 16
