REMARK SMILES COc1ccc2c(=O)cc(-c3ccc(OC)c(OC)c3)oc2c1
REMARK SMILES IDX 3 1 4 2 5 3 6 4 7 5 8 6 9 7 10 8 21 9 22 10 23 11 2 12 1 13
REMARK SMILES IDX 11 14 12 15 20 16 13 17 17 18 14 19 18 20 19 21 15 22 16 23
REMARK H PARENT
ROOT
ATOM      1  C   UNL     1      -4.865  -1.034   0.000  1.00  0.00     0.122 A 
ATOM      2  C   UNL     1      -5.235   0.420   0.000  1.00  0.00     0.047 A 
ATOM      3  C   UNL     1      -4.160   1.467   0.000  1.00  0.00     0.020 A 
ATOM      4  C   UNL     1      -2.717   1.060   0.000  1.00  0.00     0.065 A 
ATOM      5  C   UNL     1      -1.642   2.106   0.000  1.00  0.00     0.193 A 
ATOM      6  O   UNL     1      -2.011   3.560   0.000  1.00  0.00    -0.289 OA
ATOM      7  C   UNL     1      -0.199   1.699   0.000  1.00  0.00     0.100 A 
ATOM      8  C   UNL     1       0.171   0.245   0.000  1.00  0.00     0.138 A 
ATOM      9  O   UNL     1      -0.904  -0.801   0.000  1.00  0.00    -0.456 OA
ATOM     10  C   UNL     1      -2.347  -0.394   0.000  1.00  0.00     0.142 A 
ATOM     11  C   UNL     1      -3.422  -1.441   0.000  1.00  0.00     0.094 A 
ENDROOT
BRANCH   1  12
ATOM     12  O   UNL     1      -5.940  -2.081   0.000  1.00  0.00    -0.497 OA
ATOM     13  C   UNL     1      -7.384  -1.673   0.000  1.00  0.00     0.278 C 
ENDBRANCH   1  12
BRANCH   8  14
ATOM     14  C   UNL     1       1.615  -0.162   0.000  1.00  0.00     0.021 A 
ATOM     15  C   UNL     1       1.984  -1.616   0.000  1.00  0.00     0.016 A 
ATOM     16  C   UNL     1       2.689   0.885   0.000  1.00  0.00     0.062 A 
ATOM     17  C   UNL     1       3.428  -2.023   0.000  1.00  0.00     0.051 A 
ATOM     18  C   UNL     1       4.133   0.478   0.000  1.00  0.00     0.161 A 
ATOM     19  C   UNL     1       4.502  -0.976   0.000  1.00  0.00     0.160 A 
BRANCH  18  20
ATOM     20  O   UNL     1       5.207   1.524   0.000  1.00  0.00    -0.493 OA
ATOM     21  C   UNL     1       4.838   2.978   0.000  1.00  0.00     0.278 C 
ENDBRANCH  18  20
BRANCH  19  22
ATOM     22  O   UNL     1       5.946  -1.383   0.000  1.00  0.00    -0.493 OA
ATOM     23  C   UNL     1       6.315  -2.837   0.000  1.00  0.00     0.278 C 
ENDBRANCH  19  22
ENDBRANCH   8  14
TORSDOF 4
