REMARK SMILES CC1=C(O)C(=O)C=C2C1=CC=C1[C@@]2(C)CC[C@@]2(C)[C@@H]3C[C@](C)(O)C(=O)C[C@]3(C)CC[C@]12C
REMARK SMILES IDX 1 1 2 2 3 3 5 4 6 5 7 6 8 7 9 8 10 9 11 10 12 11 13 12 14 13
REMARK SMILES IDX 15 14 16 15 17 16 18 17 19 18 20 19 21 20 22 21 24 22 25 23
REMARK SMILES IDX 26 24 27 25 28 26 29 27 30 28 31 29 32 30 4 31 23 33
REMARK H PARENT 4 32 23 34
ROOT
ATOM      1  C   UNL     1      -6.201  -2.140   0.000  1.00  0.00     0.049 C 
ATOM      2  C   UNL     1      -5.410  -0.866   0.000  1.00  0.00     0.002 C 
ATOM      3  C   UNL     1      -6.118   0.457   0.000  1.00  0.00     0.166 C 
ATOM      4  C   UNL     1      -5.327   1.731   0.000  1.00  0.00     0.220 C 
ATOM      5  O   UNL     1      -6.036   3.053   0.000  1.00  0.00    -0.286 OA
ATOM      6  C   UNL     1      -3.828   1.684   0.000  1.00  0.00     0.061 C 
ATOM      7  C   UNL     1      -3.120   0.362   0.000  1.00  0.00    -0.026 C 
ATOM      8  C   UNL     1      -3.910  -0.913   0.000  1.00  0.00    -0.015 C 
ATOM      9  C   UNL     1      -3.202  -2.235   0.000  1.00  0.00     0.009 C 
ATOM     10  C   UNL     1      -1.703  -2.283   0.000  1.00  0.00     0.001 C 
ATOM     11  C   UNL     1      -0.912  -1.008   0.000  1.00  0.00    -0.053 C 
ATOM     12  C   UNL     1      -1.621   0.314   0.000  1.00  0.00     0.015 C 
ATOM     13  C   UNL     1      -2.329   1.636   0.000  1.00  0.00     0.021 C 
ATOM     14  C   UNL     1      -0.830   1.589   0.000  1.00  0.00     0.016 C 
ATOM     15  C   UNL     1       0.669   1.541   0.000  1.00  0.00     0.009 C 
ATOM     16  C   UNL     1       1.378   0.219   0.000  1.00  0.00    -0.020 C 
ATOM     17  C   UNL     1       2.169   1.494   0.000  1.00  0.00     0.012 C 
ATOM     18  C   UNL     1       2.877   0.172   0.000  1.00  0.00     0.005 C 
ATOM     19  C   UNL     1       3.668   1.446   0.000  1.00  0.00     0.047 C 
ATOM     20  C   UNL     1       5.167   1.399   0.000  1.00  0.00     0.120 C 
ATOM     21  C   UNL     1       6.592   1.867   0.000  1.00  0.00     0.050 C 
ATOM     22  C   UNL     1       5.876   0.076   0.000  1.00  0.00     0.164 C 
ATOM     23  O   UNL     1       7.375   0.029   0.000  1.00  0.00    -0.296 OA
ATOM     24  C   UNL     1       5.085  -1.198   0.000  1.00  0.00     0.086 C 
ATOM     25  C   UNL     1       3.586  -1.151   0.000  1.00  0.00    -0.022 C 
ATOM     26  C   UNL     1       4.294  -2.473   0.000  1.00  0.00     0.012 C 
ATOM     27  C   UNL     1       2.795  -2.425   0.000  1.00  0.00     0.008 C 
ATOM     28  C   UNL     1       1.296  -2.378   0.000  1.00  0.00     0.012 C 
ATOM     29  C   UNL     1       0.587  -1.056   0.000  1.00  0.00    -0.005 C 
ATOM     30  C   UNL     1      -0.204  -2.330   0.000  1.00  0.00     0.017 C 
ENDROOT
BRANCH   3  31
ATOM     31  O   UNL     1      -7.617   0.504   0.000  1.00  0.00    -0.504 OA
ATOM     32  H   UNL     1       0.000   0.000   0.000  1.00  0.00     0.293 HD
ENDBRANCH   3  31
BRANCH  20  33
ATOM     33  O   UNL     1       4.954   2.883   0.000  1.00  0.00    -0.382 OA
ATOM     34  H   UNL     1       0.000   0.000   0.000  1.00  0.00     0.211 HD
ENDBRANCH  20  33
TORSDOF 2
