REMARK SMILES CC(C)c1cc2c(c(O)c1O)[C@@]13CCCC(C)(C)C1C[C@@H]2OC3=O
REMARK SMILES IDX 4 1 5 2 6 3 7 4 8 5 10 6 12 7 13 8 14 9 15 10 16 11 17 12
REMARK SMILES IDX 18 13 19 14 20 15 21 16 22 17 23 18 24 19 2 20 1 21 3 22
REMARK SMILES IDX 11 23 9 25
REMARK H PARENT 11 24 9 26
ROOT
ATOM      1  C   UNL     1      -3.196   0.303   0.000  1.00  0.00     0.001 A 
ATOM      2  C   UNL     1      -2.200   1.426   0.000  1.00  0.00     0.016 A 
ATOM      3  C   UNL     1      -0.731   1.125   0.000  1.00  0.00     0.001 A 
ATOM      4  C   UNL     1      -0.256  -0.298   0.000  1.00  0.00     0.022 A 
ATOM      5  C   UNL     1      -1.251  -1.420   0.000  1.00  0.00     0.162 A 
ATOM      6  C   UNL     1      -2.721  -1.120   0.000  1.00  0.00     0.161 A 
ATOM      7  C   UNL     1       1.213  -0.598   0.000  1.00  0.00     0.100 C 
ATOM      8  C   UNL     1       1.688  -2.021   0.000  1.00  0.00     0.024 C 
ATOM      9  C   UNL     1       3.157  -2.322   0.000  1.00  0.00     0.002 C 
ATOM     10  C   UNL     1       4.152  -1.200   0.000  1.00  0.00     0.007 C 
ATOM     11  C   UNL     1       3.678   0.224   0.000  1.00  0.00    -0.031 C 
ATOM     12  C   UNL     1       3.719   1.723   0.000  1.00  0.00     0.011 C 
ATOM     13  C   UNL     1       5.162   0.444   0.000  1.00  0.00     0.011 C 
ATOM     14  C   UNL     1       2.208   0.524   0.000  1.00  0.00     0.021 C 
ATOM     15  C   UNL     1       1.734   1.947   0.000  1.00  0.00     0.056 C 
ATOM     16  C   UNL     1       0.264   2.248   0.000  1.00  0.00     0.207 C 
ATOM     17  O   UNL     1       0.572   1.484   0.000  1.00  0.00    -0.457 OA
ATOM     18  C   UNL     1       1.001   0.197   0.000  1.00  0.00     0.317 C 
ATOM     19  O   UNL     1       1.765   0.308   0.000  1.00  0.00    -0.251 OA
ENDROOT
BRANCH   1  20
ATOM     20  C   UNL     1      -4.665   0.604   0.000  1.00  0.00     0.017 C 
ATOM     21  C   UNL     1      -5.140   2.027   0.000  1.00  0.00     0.012 C 
ATOM     22  C   UNL     1      -5.660  -0.519   0.000  1.00  0.00     0.012 C 
ENDBRANCH   1  20
BRANCH   6  23
ATOM     23  O   UNL     1      -3.716  -2.242   0.000  1.00  0.00    -0.504 OA
ATOM     24  H   UNL     1       0.000   0.000   0.000  1.00  0.00     0.293 HD
ENDBRANCH   6  23
BRANCH   5  25
ATOM     25  O   UNL     1      -0.777  -2.843   0.000  1.00  0.00    -0.504 OA
ATOM     26  H   UNL     1       0.000   0.000   0.000  1.00  0.00     0.293 HD
ENDBRANCH   5  25
TORSDOF 3
