REMARK SMILES O=C(O[C@@H]1O[C@@H]2COC(=O)c3cc(O)c(O)c(O)c3-c3c(cc(O)c(O)c3O)C(=O)O[C@H](C1O)[C@@H]2O)c1cc(O)c(O)c(O)c1
REMARK SMILES IDX 31 1 32 2 4 3 5 4 33 5 6 6 35 7 3 9 2 10 1 11 37 12 38 13
REMARK SMILES IDX 45 14 39 15 43 16 41 17 40 18 44 20 42 22 34 24 36 26 29 28
REMARK SMILES IDX 30 29 21 30 20 31 22 32 27 33 23 34 25 35 19 36 17 37 11 38
REMARK SMILES IDX 15 39 12 40 13 41 18 42 9 44 10 45 8 46 7 47 16 49 14 51
REMARK SMILES IDX 28 53 24 55 26 57
REMARK H PARENT 40 19 44 21 42 23 34 25 36 27 18 43 16 50 14 52 28 54 24 56
REMARK H PARENT 26 58
REMARK Flexibility Score:  100.900
ROOT
ATOM      1  O   UNL     1       0.345   2.315   0.000  1.00  0.00    -0.453 OA
ENDROOT
BRANCH   1   2
ATOM      2  C   UNL     1      -0.849   1.407   0.000  1.00  0.00     0.243 C 
ATOM      3  C   UNL     1      -3.254   0.424   0.000  1.00  0.00     0.344 C 
ATOM      4  O   UNL     1      -2.686  -0.965   0.000  1.00  0.00    -0.331 OA
ATOM      5  C   UNL     1      -2.335   1.610   0.000  1.00  0.00     0.227 C 
ATOM      6  C   UNL     1      -1.200  -1.167   0.000  1.00  0.00     0.193 CG0
ATOM      7  C   UNL     1      -0.281   0.019   0.000  1.00  0.00     0.190 C 
ATOM      8  G   UNL     1      -0.333  -2.658   0.000  1.00  0.00     0.000 G0
BRANCH   3   9
ATOM      9  O   UNL     1      -4.740   0.626   0.000  1.00  0.00    -0.429 OA
BRANCH   9  10
ATOM     10  C   UNL     1      -5.659  -0.559   0.000  1.00  0.00     0.340 C 
ATOM     11  O   UNL     1      -5.091  -1.948   0.000  1.00  0.00    -0.246 OA
BRANCH  10  12
ATOM     12  C   UNL     1      -7.145  -0.357   0.000  1.00  0.00     0.067 A 
ATOM     13  C   UNL     1      -7.713   1.032   0.000  1.00  0.00     0.066 A 
ATOM     14  C   UNL     1      -8.063  -1.543   0.000  1.00  0.00     0.066 A 
ATOM     15  C   UNL     1      -9.199   1.234   0.000  1.00  0.00     0.162 A 
ATOM     16  C   UNL     1      -9.550  -1.340   0.000  1.00  0.00     0.162 A 
ATOM     17  C   UNL     1     -10.117   0.048   0.000  1.00  0.00     0.200 A 
BRANCH  15  18
ATOM     18  O   UNL     1      -9.767   2.623   0.000  1.00  0.00    -0.504 OA
ATOM     19  H   UNL     1       0.000   0.000   0.000  1.00  0.00     0.293 HD
ENDBRANCH  15  18
BRANCH  16  20
ATOM     20  O   UNL     1     -10.468  -2.526   0.000  1.00  0.00    -0.504 OA
ATOM     21  H   UNL     1       0.000   0.000   0.000  1.00  0.00     0.293 HD
ENDBRANCH  16  20
BRANCH  17  22
ATOM     22  O   UNL     1     -11.604   0.251   0.000  1.00  0.00    -0.502 OA
ATOM     23  H   UNL     1       0.000   0.000   0.000  1.00  0.00     0.293 HD
ENDBRANCH  17  22
ENDBRANCH  10  12
ENDBRANCH   9  10
ENDBRANCH   3   9
BRANCH   5  24
ATOM     24  O   UNL     1      -2.903   2.998   0.000  1.00  0.00    -0.383 OA
ATOM     25  H   UNL     1       0.000   0.000   0.000  1.00  0.00     0.211 HD
ENDBRANCH   5  24
BRANCH   7  26
ATOM     26  O   UNL     1       1.205  -0.184   0.000  1.00  0.00    -0.386 OA
ATOM     27  H   UNL     1       0.000   0.000   0.000  1.00  0.00     0.211 HD
ENDBRANCH   7  26
ENDBRANCH   1   2
BRANCH   1  28
ATOM     28  C   UNL     1       1.833   2.504   0.000  1.00  0.00     0.339 C 
ATOM     29  O   UNL     1       2.036   3.990   0.000  1.00  0.00    -0.246 OA
BRANCH  28  30
ATOM     30  C   UNL     1       3.216   1.923   0.000  1.00  0.00     0.075 A 
ATOM     31  C   UNL     1       4.124   0.729   0.000  1.00  0.00     0.047 A 
ATOM     32  C   UNL     1       3.797   3.307   0.000  1.00  0.00     0.066 A 
ATOM     33  C   UNL     1       5.612   0.918   0.000  1.00  0.00     0.170 A 
ATOM     34  C   UNL     1       5.285   3.495   0.000  1.00  0.00     0.162 A 
ATOM     35  C   UNL     1       6.192   2.301   0.000  1.00  0.00     0.200 A 
BRANCH  31  36
ATOM     36  C   UNL     1       4.313  -0.759   0.000  1.00  0.00     0.047 A 
ATOM     37  C   UNL     1       5.801  -0.570   0.000  1.00  0.00     0.170 A 
ATOM     38  C   UNL     1       3.733  -2.142   0.000  1.00  0.00     0.075 A 
ATOM     39  C   UNL     1       6.709  -1.764   0.000  1.00  0.00     0.200 A 
ATOM     40  C   UNL     1       4.640  -3.336   0.000  1.00  0.00     0.066 A 
ATOM     41  C   UNL     1       6.128  -3.147   0.000  1.00  0.00     0.162 A 
BRANCH  37  42
ATOM     42  O   UNL     1       6.278   0.069   0.000  1.00  0.00    -0.504 OA
ATOM     43  H   UNL     1       0.000   0.000   0.000  1.00  0.00     0.293 HD
ENDBRANCH  37  42
BRANCH  38  44
ATOM     44  C   UNL     1       2.539  -3.050   0.000  1.00  0.00     0.339 C 
ATOM     45  O   UNL     1       3.106  -4.438   0.000  1.00  0.00    -0.246 OA
BRANCH  44  46
ATOM     46  O   UNL     1       1.050  -3.239   0.000  1.00  0.00    -0.459 OA
BRANCH  46  47
ATOM     47  C   UNL     1      -0.333  -2.658   0.000  1.00  0.00     0.268 CG0
ATOM     48  G   UNL     1      -1.200  -1.167   0.000  1.00  0.00     0.000 G0
ENDBRANCH  46  47
ENDBRANCH  44  46
ENDBRANCH  38  44
BRANCH  39  49
ATOM     49  O   UNL     1       8.197  -1.575   0.000  1.00  0.00    -0.502 OA
ATOM     50  H   UNL     1       0.000   0.000   0.000  1.00  0.00     0.293 HD
ENDBRANCH  39  49
BRANCH  41  51
ATOM     51  O   UNL     1       7.036  -4.341   0.000  1.00  0.00    -0.504 OA
ATOM     52  H   UNL     1       0.000   0.000   0.000  1.00  0.00     0.293 HD
ENDBRANCH  41  51
ENDBRANCH  31  36
BRANCH  33  53
ATOM     53  O   UNL     1       6.234   0.419   0.000  1.00  0.00    -0.504 OA
ATOM     54  H   UNL     1       0.000   0.000   0.000  1.00  0.00     0.293 HD
ENDBRANCH  33  53
BRANCH  34  55
ATOM     55  O   UNL     1       5.865   4.879   0.000  1.00  0.00    -0.504 OA
ATOM     56  H   UNL     1       0.000   0.000   0.000  1.00  0.00     0.293 HD
ENDBRANCH  34  55
BRANCH  35  57
ATOM     57  O   UNL     1       7.681   2.490   0.000  1.00  0.00    -0.502 OA
ATOM     58  H   UNL     1       0.000   0.000   0.000  1.00  0.00     0.293 HD
ENDBRANCH  35  57
ENDBRANCH  28  30
ENDBRANCH   1  28
TORSDOF 14
