REMARK SMILES COC[C@H]1O[C@@H](O[C@H]2CC[C@]3(C)[C@H]4CC=C5[C@@H]6CC(C)(C)CC[C@]6(C(=O)O[C@@H]6O[C@H](CO)[C@@H](O)[C@H](O)[C@H]6O)CC[C@@]5(C)[C@]4(C)CC[C@H]3C2(C)C)[C@H](O)[C@@H](O)[C@@H]1O
REMARK SMILES IDX 8 1 9 2 10 3 11 4 12 5 13 6 14 7 15 8 16 9 17 10 18 11 19 12
REMARK SMILES IDX 20 13 21 14 22 15 23 16 24 17 39 18 40 19 41 20 42 21 43 22
REMARK SMILES IDX 44 23 45 24 46 25 47 26 48 27 49 28 50 29 7 30 6 31 4 32
REMARK SMILES IDX 5 33 55 34 53 35 51 36 3 37 2 38 1 39 56 40 54 42 52 44
REMARK SMILES IDX 25 46 26 47 27 48 28 49 29 50 37 51 30 52 35 53 33 54 38 55
REMARK SMILES IDX 31 57 32 58 36 60 34 62
REMARK H PARENT 56 41 54 43 52 45 38 56 32 59 36 61 34 63
ROOT
ATOM      1  C   UNL     1      -5.492   1.079   0.000  1.00  0.00     0.127 C 
ATOM      2  C   UNL     1      -5.230  -0.398   0.000  1.00  0.00     0.033 C 
ATOM      3  C   UNL     1      -3.820  -0.909   0.000  1.00  0.00     0.010 C 
ATOM      4  C   UNL     1      -2.672   0.056   0.000  1.00  0.00    -0.025 C 
ATOM      5  C   UNL     1      -2.410  -1.421   0.000  1.00  0.00     0.012 C 
ATOM      6  C   UNL     1      -1.262  -0.455   0.000  1.00  0.00     0.006 C 
ATOM      7  C   UNL     1      -1.000  -1.932   0.000  1.00  0.00     0.032 C 
ATOM      8  C   UNL     1       0.410  -2.444   0.000  1.00  0.00    -0.027 C 
ATOM      9  C   UNL     1       1.558  -1.478   0.000  1.00  0.00    -0.063 C 
ATOM     10  C   UNL     1       2.968  -1.990   0.000  1.00  0.00     0.033 C 
ATOM     11  C   UNL     1       3.230  -3.467   0.000  1.00  0.00     0.015 C 
ATOM     12  C   UNL     1       4.640  -3.978   0.000  1.00  0.00    -0.035 C 
ATOM     13  C   UNL     1       5.790  -4.941   0.000  1.00  0.00     0.011 C 
ATOM     14  C   UNL     1       3.892  -5.278   0.000  1.00  0.00     0.011 C 
ATOM     15  C   UNL     1       5.788  -3.013   0.000  1.00  0.00     0.007 C 
ATOM     16  C   UNL     1       5.526  -1.536   0.000  1.00  0.00     0.020 C 
ATOM     17  C   UNL     1       4.116  -1.024   0.000  1.00  0.00     0.075 C 
ATOM     18  C   UNL     1       3.854   0.453   0.000  1.00  0.00     0.020 C 
ATOM     19  C   UNL     1       2.444   0.964   0.000  1.00  0.00     0.013 C 
ATOM     20  C   UNL     1       1.296  -0.001   0.000  1.00  0.00    -0.006 C 
ATOM     21  C   UNL     1       0.148  -0.967   0.000  1.00  0.00     0.017 C 
ATOM     22  C   UNL     1      -0.114   0.510   0.000  1.00  0.00    -0.020 C 
ATOM     23  C   UNL     1       1.034   1.476   0.000  1.00  0.00     0.012 C 
ATOM     24  C   UNL     1      -0.376   1.987   0.000  1.00  0.00     0.008 C 
ATOM     25  C   UNL     1      -1.786   2.499   0.000  1.00  0.00     0.005 C 
ATOM     26  C   UNL     1      -2.934   1.533   0.000  1.00  0.00     0.003 C 
ATOM     27  C   UNL     1      -4.344   2.045   0.000  1.00  0.00    -0.006 C 
ATOM     28  C   UNL     1      -5.495   3.008   0.000  1.00  0.00     0.014 C 
ATOM     29  C   UNL     1      -3.596   3.345   0.000  1.00  0.00     0.014 C 
ENDROOT
BRANCH   1  30
ATOM     30  O   UNL     1      -6.902   1.591   0.000  1.00  0.00    -0.346 OA
BRANCH  30  31
ATOM     31  C   UNL     1      -8.050   0.625   0.000  1.00  0.00     0.282 C 
ATOM     32  C   UNL     1     -10.609   0.172   0.000  1.00  0.00     0.178 C 
ATOM     33  O   UNL     1      -9.461   1.137   0.000  1.00  0.00    -0.341 OA
ATOM     34  C   UNL     1     -10.347  -1.306   0.000  1.00  0.00     0.177 C 
ATOM     35  C   UNL     1      -8.937  -1.817   0.000  1.00  0.00     0.179 C 
ATOM     36  C   UNL     1      -7.788  -0.852   0.000  1.00  0.00     0.202 C 
BRANCH  32  37
ATOM     37  C   UNL     1     -12.019   0.683   0.000  1.00  0.00     0.194 C 
BRANCH  37  38
ATOM     38  O   UNL     1     -12.281   2.160   0.000  1.00  0.00    -0.382 OA
ATOM     39  C   UNL     1     -13.691   2.671   0.000  1.00  0.00     0.195 C 
ENDBRANCH  37  38
ENDBRANCH  32  37
BRANCH  34  40
ATOM     40  O   UNL     1     -11.495  -2.271   0.000  1.00  0.00    -0.387 OA
ATOM     41  H   UNL     1       0.000   0.000   0.000  1.00  0.00     0.211 HD
ENDBRANCH  34  40
BRANCH  35  42
ATOM     42  O   UNL     1      -8.674  -3.294   0.000  1.00  0.00    -0.387 OA
ATOM     43  H   UNL     1       0.000   0.000   0.000  1.00  0.00     0.211 HD
ENDBRANCH  35  42
BRANCH  36  44
ATOM     44  O   UNL     1      -6.378  -1.363   0.000  1.00  0.00    -0.385 OA
ATOM     45  H   UNL     1       0.000   0.000   0.000  1.00  0.00     0.211 HD
ENDBRANCH  36  44
ENDBRANCH  30  31
ENDBRANCH   1  30
BRANCH  17  46
ATOM     46  C   UNL     1       5.264  -0.059   0.000  1.00  0.00     0.315 C 
ATOM     47  O   UNL     1       5.002   1.418   0.000  1.00  0.00    -0.252 OA
BRANCH  46  48
ATOM     48  O   UNL     1       6.674  -0.570   0.000  1.00  0.00    -0.432 OA
BRANCH  48  49
ATOM     49  C   UNL     1       7.822   0.395   0.000  1.00  0.00     0.342 C 
ATOM     50  O   UNL     1       9.232  -0.116   0.000  1.00  0.00    -0.332 OA
ATOM     51  C   UNL     1       7.560   1.872   0.000  1.00  0.00     0.214 C 
ATOM     52  C   UNL     1      10.380   0.849   0.000  1.00  0.00     0.179 C 
ATOM     53  C   UNL     1       8.708   2.837   0.000  1.00  0.00     0.180 C 
ATOM     54  C   UNL     1      10.118   2.326   0.000  1.00  0.00     0.177 C 
BRANCH  51  55
ATOM     55  O   UNL     1       6.150   2.384   0.000  1.00  0.00    -0.384 OA
ATOM     56  H   UNL     1       0.000   0.000   0.000  1.00  0.00     0.211 HD
ENDBRANCH  51  55
BRANCH  52  57
ATOM     57  C   UNL     1      11.790   0.338   0.000  1.00  0.00     0.191 C 
BRANCH  57  58
ATOM     58  O   UNL     1      12.053  -1.139   0.000  1.00  0.00    -0.394 OA
ATOM     59  H   UNL     1       0.000   0.000   0.000  1.00  0.00     0.210 HD
ENDBRANCH  57  58
ENDBRANCH  52  57
BRANCH  53  60
ATOM     60  O   UNL     1       8.446   4.314   0.000  1.00  0.00    -0.387 OA
ATOM     61  H   UNL     1       0.000   0.000   0.000  1.00  0.00     0.211 HD
ENDBRANCH  53  60
BRANCH  54  62
ATOM     62  O   UNL     1      11.266   3.291   0.000  1.00  0.00    -0.387 OA
ATOM     63  H   UNL     1       0.000   0.000   0.000  1.00  0.00     0.211 HD
ENDBRANCH  54  62
ENDBRANCH  48  49
ENDBRANCH  46  48
ENDBRANCH  17  46
TORSDOF 15
