REMARK SMILES COc1cc(OC(C)=O)c2c(=O)c(OC)c(-c3cc(OC(C)=O)c(OC)cc3OC(C)=O)oc2c1
REMARK SMILES IDX 3 1 4 2 5 3 10 4 11 5 12 6 13 7 16 8 33 9 34 10 35 11 2 12
REMARK SMILES IDX 1 13 6 14 7 15 8 16 9 17 17 18 18 19 28 20 19 21 27 22 24 23
REMARK SMILES IDX 29 24 30 25 31 26 32 27 20 28 21 29 22 30 23 31 25 32 26 33
REMARK SMILES IDX 14 34 15 35
REMARK H PARENT
ROOT
ATOM      1  C   UNL     1      -4.443  -1.979   0.000  1.00  0.00     0.126 A 
ATOM      2  C   UNL     1      -5.022  -0.595   0.000  1.00  0.00     0.094 A 
ATOM      3  C   UNL     1      -4.114   0.599   0.000  1.00  0.00     0.149 A 
ATOM      4  C   UNL     1      -2.627   0.409   0.000  1.00  0.00     0.112 A 
ATOM      5  C   UNL     1      -1.718   1.603   0.000  1.00  0.00     0.239 A 
ATOM      6  O   UNL     1      -2.298   2.986   0.000  1.00  0.00    -0.285 OA
ATOM      7  C   UNL     1      -0.231   1.414   0.000  1.00  0.00     0.211 A 
ATOM      8  C   UNL     1       0.349   0.030   0.000  1.00  0.00     0.184 A 
ATOM      9  O   UNL     1      -0.559  -1.164   0.000  1.00  0.00    -0.451 OA
ATOM     10  C   UNL     1      -2.046  -0.974   0.000  1.00  0.00     0.146 A 
ATOM     11  C   UNL     1      -2.955  -2.168   0.000  1.00  0.00     0.094 A 
ENDROOT
BRANCH   1  12
ATOM     12  O   UNL     1      -5.351  -3.173   0.000  1.00  0.00    -0.496 OA
ATOM     13  C   UNL     1      -6.839  -2.983   0.000  1.00  0.00     0.278 C 
ENDBRANCH   1  12
BRANCH   3  14
ATOM     14  O   UNL     1      -4.694   1.982   0.000  1.00  0.00    -0.426 OA
BRANCH  14  15
ATOM     15  C   UNL     1      -6.182   2.171   0.000  1.00  0.00     0.308 C 
ATOM     16  C   UNL     1      -6.762   3.555   0.000  1.00  0.00     0.139 C 
ATOM     17  O   UNL     1      -7.090   0.978   0.000  1.00  0.00    -0.252 OA
ENDBRANCH  14  15
ENDBRANCH   3  14
BRANCH   8  18
ATOM     18  C   UNL     1       1.837  -0.159   0.000  1.00  0.00     0.068 A 
ATOM     19  C   UNL     1       2.745   1.035   0.000  1.00  0.00     0.067 A 
ATOM     20  C   UNL     1       2.417  -1.542   0.000  1.00  0.00     0.145 A 
ATOM     21  C   UNL     1       4.234   0.845   0.000  1.00  0.00     0.173 A 
ATOM     22  C   UNL     1       3.905  -1.732   0.000  1.00  0.00     0.098 A 
ATOM     23  C   UNL     1       4.814  -0.538   0.000  1.00  0.00     0.165 A 
BRANCH  20  24
ATOM     24  O   UNL     1       1.509  -2.736   0.000  1.00  0.00    -0.426 OA
BRANCH  24  25
ATOM     25  C   UNL     1       2.089  -4.120   0.000  1.00  0.00     0.308 C 
ATOM     26  C   UNL     1       1.181  -5.314   0.000  1.00  0.00     0.139 C 
ATOM     27  O   UNL     1       3.577  -4.309   0.000  1.00  0.00    -0.252 OA
ENDBRANCH  24  25
ENDBRANCH  20  24
BRANCH  21  28
ATOM     28  O   UNL     1       5.142   2.039   0.000  1.00  0.00    -0.423 OA
BRANCH  28  29
ATOM     29  C   UNL     1       4.562   3.423   0.000  1.00  0.00     0.308 C 
ATOM     30  C   UNL     1       5.470   4.617   0.000  1.00  0.00     0.139 C 
ATOM     31  O   UNL     1       3.074   3.612   0.000  1.00  0.00    -0.252 OA
ENDBRANCH  28  29
ENDBRANCH  21  28
BRANCH  23  32
ATOM     32  O   UNL     1       6.301  -0.727   0.000  1.00  0.00    -0.493 OA
ATOM     33  C   UNL     1       6.881  -2.111   0.000  1.00  0.00     0.278 C 
ENDBRANCH  23  32
ENDBRANCH   8  18
BRANCH   7  34
ATOM     34  O   UNL     1       0.678   2.608   0.000  1.00  0.00    -0.490 OA
ATOM     35  C   UNL     1       2.166   2.418   0.000  1.00  0.00     0.278 C 
ENDBRANCH   7  34
TORSDOF 10
