REMARK SMILES CC[C@H]1CN2CCc3c([nH]c4ccc(OC)cc34)[C@@H]2C[C@@H]1CCO
REMARK SMILES IDX 22 1 21 2 3 3 4 4 5 5 20 6 6 7 19 8 7 9 9 10 8 11 10 12
REMARK SMILES IDX 18 13 11 14 17 15 12 16 14 17 13 18 2 20 1 21 15 22 16 23
REMARK SMILES IDX 23 24 24 25
REMARK H PARENT 10 19 24 26
ROOT
ATOM      1  C   UNL     1      -4.438  -1.888   0.000  1.00  0.00     0.032 C 
ENDROOT
BRANCH   1   2
ATOM      2  C   UNL     1      -3.441  -0.767   0.000  1.00  0.00    -0.003 C 
ATOM      3  C   UNL     1      -3.914   0.657   0.000  1.00  0.00     0.006 C 
ATOM      4  C   UNL     1      -2.917   1.778   0.000  1.00  0.00     0.089 C 
ATOM      5  N   UNL     1      -1.448   1.475   0.000  1.00  0.00    -0.294 NA
ATOM      6  C   UNL     1      -1.972  -1.070   0.000  1.00  0.00     0.029 C 
ATOM      7  C   UNL     1      -0.451   2.596   0.000  1.00  0.00     0.090 C 
ATOM      8  C   UNL     1      -0.976   0.051   0.000  1.00  0.00     0.104 C 
ATOM      9  C   UNL     1       1.018   2.293   0.000  1.00  0.00     0.053 C 
ATOM     10  C   UNL     1       0.494  -0.252   0.000  1.00  0.00     0.037 A 
ATOM     11  C   UNL     1       1.490   0.870   0.000  1.00  0.00    -0.016 A 
ATOM     12  N   UNL     1       1.252  -1.546   0.000  1.00  0.00    -0.357 N 
ATOM     13  C   UNL     1       2.865   0.268   0.000  1.00  0.00     0.007 A 
ATOM     14  C   UNL     1       2.717  -1.225   0.000  1.00  0.00     0.046 A 
ATOM     15  C   UNL     1       4.231   0.886   0.000  1.00  0.00     0.057 A 
ATOM     16  C   UNL     1       3.936  -2.099   0.000  1.00  0.00     0.030 A 
ATOM     17  C   UNL     1       5.450   0.012   0.000  1.00  0.00     0.119 A 
ATOM     18  C   UNL     1       5.302  -1.480   0.000  1.00  0.00     0.048 A 
ATOM     19  H   UNL     1       0.000   0.000   0.000  1.00  0.00     0.166 HD
BRANCH   3  20
ATOM     20  C   UNL     1      -5.383   0.960   0.000  1.00  0.00     0.002 C 
ATOM     21  C   UNL     1      -5.855   2.383   0.000  1.00  0.00     0.004 C 
ENDBRANCH   3  20
BRANCH  17  22
ATOM     22  O   UNL     1       6.816   0.631   0.000  1.00  0.00    -0.497 OA
ATOM     23  C   UNL     1       8.035  -0.243   0.000  1.00  0.00     0.278 C 
ENDBRANCH  17  22
ENDBRANCH   1   2
BRANCH   1  24
ATOM     24  C   UNL     1      -5.907  -1.585   0.000  1.00  0.00     0.156 C 
BRANCH  24  25
ATOM     25  O   UNL     1      -6.904  -2.706   0.000  1.00  0.00    -0.396 OA
ATOM     26  H   UNL     1       0.000   0.000   0.000  1.00  0.00     0.210 HD
ENDBRANCH  24  25
ENDBRANCH   1  24
TORSDOF 5
