REMARK SMILES C[C@@H]1CC[C@]2(C)CC[C@]3(C)C(=CC[C@@H]4[C@@]5(C)C[C@@H](O)[C@H](O)C(CO)(CO)[C@@H]5CC[C@]43C)[C@@H]2[C@]1(C)O
REMARK SMILES IDX 1 1 2 2 3 3 4 4 5 5 6 6 7 7 8 8 9 9 10 10 11 11 12 12 13 13
REMARK SMILES IDX 14 14 15 15 16 16 17 17 18 18 20 19 22 20 27 21 28 22 29 23
REMARK SMILES IDX 30 24 31 25 32 26 33 27 34 28 35 29 23 31 24 32 25 34 26 35
REMARK SMILES IDX 19 37 21 39
REMARK H PARENT 35 30 24 33 26 36 19 38 21 40
ROOT
ATOM      1  C   UNL     1      -6.895  -2.307   0.000  1.00  0.00     0.011 C 
ATOM      2  C   UNL     1      -6.007  -1.097   0.000  1.00  0.00     0.018 C 
ATOM      3  C   UNL     1      -6.611   0.276   0.000  1.00  0.00     0.007 C 
ATOM      4  C   UNL     1      -5.723   1.485   0.000  1.00  0.00     0.008 C 
ATOM      5  C   UNL     1      -4.232   1.321   0.000  1.00  0.00    -0.023 C 
ATOM      6  C   UNL     1      -4.836   2.695   0.000  1.00  0.00     0.012 C 
ATOM      7  C   UNL     1      -3.345   2.531   0.000  1.00  0.00     0.008 C 
ATOM      8  C   UNL     1      -1.854   2.367   0.000  1.00  0.00     0.012 C 
ATOM      9  C   UNL     1      -1.250   0.994   0.000  1.00  0.00    -0.006 C 
ATOM     10  C   UNL     1      -0.647  -0.379   0.000  1.00  0.00     0.017 C 
ATOM     11  C   UNL     1      -2.138  -0.215   0.000  1.00  0.00    -0.061 C 
ATOM     12  C   UNL     1      -1.534  -1.589   0.000  1.00  0.00    -0.026 C 
ATOM     13  C   UNL     1      -0.043  -1.753   0.000  1.00  0.00     0.032 C 
ATOM     14  C   UNL     1       0.844  -0.543   0.000  1.00  0.00     0.006 C 
ATOM     15  C   UNL     1       2.335  -0.707   0.000  1.00  0.00    -0.023 C 
ATOM     16  C   UNL     1       1.448  -1.916   0.000  1.00  0.00     0.012 C 
ATOM     17  C   UNL     1       2.939  -2.080   0.000  1.00  0.00     0.042 C 
ATOM     18  C   UNL     1       4.430  -2.244   0.000  1.00  0.00     0.144 C 
ATOM     19  C   UNL     1       5.317  -1.035   0.000  1.00  0.00     0.154 C 
ATOM     20  C   UNL     1       4.714   0.338   0.000  1.00  0.00     0.048 C 
ATOM     21  C   UNL     1       3.223   0.502   0.000  1.00  0.00     0.009 C 
ATOM     22  C   UNL     1       2.619   1.875   0.000  1.00  0.00     0.005 C 
ATOM     23  C   UNL     1       1.128   2.039   0.000  1.00  0.00     0.008 C 
ATOM     24  C   UNL     1       0.241   0.830   0.000  1.00  0.00    -0.020 C 
ATOM     25  C   UNL     1      -0.363   2.203   0.000  1.00  0.00     0.012 C 
ATOM     26  C   UNL     1      -3.629  -0.052   0.000  1.00  0.00     0.053 C 
ATOM     27  C   UNL     1      -4.516  -1.261   0.000  1.00  0.00     0.072 C 
ATOM     28  C   UNL     1      -3.171  -1.925   0.000  1.00  0.00     0.043 C 
ENDROOT
BRANCH  27  29
ATOM     29  O   UNL     1      -4.936  -2.701   0.000  1.00  0.00    -0.389 OA
ATOM     30  H   UNL     1       0.000   0.000   0.000  1.00  0.00     0.211 HD
ENDBRANCH  27  29
BRANCH  20  31
ATOM     31  C   UNL     1       4.616   1.835   0.000  1.00  0.00     0.168 C 
BRANCH  31  32
ATOM     32  O   UNL     1       3.271   2.499   0.000  1.00  0.00    -0.396 OA
ATOM     33  H   UNL     1       0.000   0.000   0.000  1.00  0.00     0.210 HD
ENDBRANCH  31  32
ENDBRANCH  20  31
BRANCH  20  34
ATOM     34  C   UNL     1       6.171   0.694   0.000  1.00  0.00     0.168 C 
BRANCH  34  35
ATOM     35  O   UNL     1       6.591   2.134   0.000  1.00  0.00    -0.396 OA
ATOM     36  H   UNL     1       0.000   0.000   0.000  1.00  0.00     0.210 HD
ENDBRANCH  34  35
ENDBRANCH  20  34
BRANCH  18  37
ATOM     37  O   UNL     1       5.034  -3.617   0.000  1.00  0.00    -0.390 OA
ATOM     38  H   UNL     1       0.000   0.000   0.000  1.00  0.00     0.211 HD
ENDBRANCH  18  37
BRANCH  19  39
ATOM     39  O   UNL     1       6.808  -1.199   0.000  1.00  0.00    -0.390 OA
ATOM     40  H   UNL     1       0.000   0.000   0.000  1.00  0.00     0.211 HD
ENDBRANCH  19  39
TORSDOF 7
