REMARK SMILES CC[C@H]1C(=O)C[C@H]2[C@@H]3CC[C@H]4C[C@@H](OC(C)=O)C(=O)C[C@]4(COC(C)=O)[C@H]3CC[C@]12C
REMARK SMILES IDX 3 1 4 2 5 3 6 4 7 5 8 6 9 7 10 8 11 9 12 10 13 11 18 12
REMARK SMILES IDX 19 13 20 14 21 15 27 16 28 17 29 18 30 19 31 20 2 21 1 22
REMARK SMILES IDX 22 23 23 24 24 25 25 26 26 27 14 28 15 29 16 30 17 31
REMARK H PARENT
ROOT
ATOM      1  C   UNL     1       4.830   0.356   0.000  1.00  0.00     0.062 C 
ATOM      2  C   UNL     1       5.014   1.844   0.000  1.00  0.00     0.136 C 
ATOM      3  O   UNL     1       6.327   2.570   0.000  1.00  0.00    -0.299 OA
ATOM      4  C   UNL     1       3.656   2.480   0.000  1.00  0.00     0.080 C 
ATOM      5  C   UNL     1       2.631   1.384   0.000  1.00  0.00     0.006 C 
ATOM      6  C   UNL     1       1.132   1.412   0.000  1.00  0.00    -0.003 C 
ATOM      7  C   UNL     1       0.406   2.725   0.000  1.00  0.00     0.004 C 
ATOM      8  C   UNL     1      -1.094   2.753   0.000  1.00  0.00     0.005 C 
ATOM      9  C   UNL     1      -1.868   1.468   0.000  1.00  0.00     0.003 C 
ATOM     10  C   UNL     1      -3.368   1.496   0.000  1.00  0.00     0.058 C 
ATOM     11  C   UNL     1      -4.142   0.211   0.000  1.00  0.00     0.243 C 
ATOM     12  C   UNL     1      -3.416  -1.102   0.000  1.00  0.00     0.174 C 
ATOM     13  O   UNL     1      -4.190  -2.387   0.000  1.00  0.00    -0.295 OA
ATOM     14  C   UNL     1      -1.916  -1.130   0.000  1.00  0.00     0.091 C 
ATOM     15  C   UNL     1      -1.142   0.155   0.000  1.00  0.00     0.018 C 
ATOM     16  C   UNL     1       0.358   0.127   0.000  1.00  0.00     0.003 C 
ATOM     17  C   UNL     1       1.083  -1.186   0.000  1.00  0.00     0.005 C 
ATOM     18  C   UNL     1       2.583  -1.214   0.000  1.00  0.00     0.008 C 
ATOM     19  C   UNL     1       3.357   0.071   0.000  1.00  0.00    -0.019 C 
ATOM     20  C   UNL     1       4.216  -1.158   0.000  1.00  0.00     0.012 C 
ENDROOT
BRANCH   1  21
ATOM     21  C   UNL     1       5.926  -0.668   0.000  1.00  0.00     0.008 C 
ATOM     22  C   UNL     1       7.361  -0.232   0.000  1.00  0.00     0.005 C 
ENDBRANCH   1  21
BRANCH  15  23
ATOM     23  C   UNL     1      -0.416  -1.158   0.000  1.00  0.00     0.240 C 
BRANCH  23  24
ATOM     24  O   UNL     1      -1.190  -2.443   0.000  1.00  0.00    -0.465 OA
BRANCH  24  25
ATOM     25  C   UNL     1      -0.465  -3.755   0.000  1.00  0.00     0.302 C 
ATOM     26  C   UNL     1      -1.239  -5.040   0.000  1.00  0.00     0.139 C 
ATOM     27  O   UNL     1       1.035  -3.783   0.000  1.00  0.00    -0.253 OA
ENDBRANCH  24  25
ENDBRANCH  23  24
ENDBRANCH  15  23
BRANCH  11  28
ATOM     28  O   UNL     1      -5.641   0.239   0.000  1.00  0.00    -0.455 OA
BRANCH  28  29
ATOM     29  C   UNL     1      -6.367   1.551   0.000  1.00  0.00     0.303 C 
ATOM     30  C   UNL     1      -7.867   1.579   0.000  1.00  0.00     0.139 C 
ATOM     31  O   UNL     1      -5.593   2.836   0.000  1.00  0.00    -0.253 OA
ENDBRANCH  28  29
ENDBRANCH  11  28
TORSDOF 6
