REMARK SMILES COc1cc([C@H]2O[C@@H](c3cc(OC)c4c(c3)OCO4)[C@@H](C)[C@@H]2C)cc2c1OCO2
REMARK SMILES IDX 6 1 7 2 8 3 20 4 21 5 22 6 23 7 5 8 3 9 4 10 26 11 25 12
REMARK SMILES IDX 27 13 24 14 29 15 28 16 2 17 1 18 9 19 10 20 16 21 11 22
REMARK SMILES IDX 15 23 14 24 17 25 19 26 18 27 12 28 13 29
REMARK H PARENT
ROOT
ATOM      1  C   UNL     1      -1.183  -0.648   0.000  1.00  0.00     0.152 C 
ATOM      2  O   UNL     1       0.046   0.213   0.000  1.00  0.00    -0.365 OA
ATOM      3  C   UNL     1       1.244  -0.690   0.000  1.00  0.00     0.152 C 
ATOM      4  C   UNL     1       0.755  -2.108   0.000  1.00  0.00     0.025 C 
ATOM      5  C   UNL     1       1.615  -3.337   0.000  1.00  0.00     0.011 C 
ATOM      6  C   UNL     1      -0.745  -2.082   0.000  1.00  0.00     0.025 C 
ATOM      7  C   UNL     1      -1.648  -3.280   0.000  1.00  0.00     0.011 C 
ENDROOT
BRANCH   1   8
ATOM      8  C   UNL     1      -2.601  -0.159   0.000  1.00  0.00    -0.011 A 
ATOM      9  C   UNL     1      -5.152  -0.655   0.000  1.00  0.00     0.165 A 
ATOM     10  C   UNL     1      -3.734  -1.143   0.000  1.00  0.00     0.057 A 
ATOM     11  C   UNL     1      -5.438   0.818   0.000  1.00  0.00     0.207 A 
ATOM     12  C   UNL     1      -4.306   1.802   0.000  1.00  0.00     0.170 A 
ATOM     13  O   UNL     1      -6.724   1.590   0.000  1.00  0.00    -0.450 OA
ATOM     14  C   UNL     1      -2.888   1.313   0.000  1.00  0.00     0.057 A 
ATOM     15  O   UNL     1      -4.892   3.183   0.000  1.00  0.00    -0.453 OA
ATOM     16  C   UNL     1      -6.386   3.052   0.000  1.00  0.00     0.468 C 
BRANCH   9  17
ATOM     17  O   UNL     1      -6.284  -1.639   0.000  1.00  0.00    -0.493 OA
ATOM     18  C   UNL     1      -5.998  -3.111   0.000  1.00  0.00     0.278 C 
ENDBRANCH   9  17
ENDBRANCH   1   8
BRANCH   3  19
ATOM     19  C   UNL     1       2.678  -0.252   0.000  1.00  0.00    -0.011 A 
ATOM     20  C   UNL     1       3.016   1.210   0.000  1.00  0.00     0.057 A 
ATOM     21  C   UNL     1       3.775  -1.275   0.000  1.00  0.00     0.057 A 
ATOM     22  C   UNL     1       4.450   1.648   0.000  1.00  0.00     0.165 A 
ATOM     23  C   UNL     1       5.209  -0.837   0.000  1.00  0.00     0.170 A 
ATOM     24  C   UNL     1       5.547   0.625   0.000  1.00  0.00     0.207 A 
ATOM     25  O   UNL     1       6.495  -1.609   0.000  1.00  0.00    -0.453 OA
ATOM     26  O   UNL     1       7.041   0.756   0.000  1.00  0.00    -0.450 OA
ATOM     27  C   UNL     1       7.627  -0.625   0.000  1.00  0.00     0.468 C 
BRANCH  22  28
ATOM     28  O   UNL     1       4.788   3.110   0.000  1.00  0.00    -0.493 OA
ATOM     29  C   UNL     1       3.691   4.133   0.000  1.00  0.00     0.278 C 
ENDBRANCH  22  28
ENDBRANCH   3  19
TORSDOF 4
