REMARK SMILES CC1(C)C(=O)CC[C@]2(C)C3CC[C@H]4[C@H]([C@H]5CC([C@@H](O)C(C)(C)O)CC5O)CC[C@]4(C)C3=CCC12
REMARK SMILES IDX 18 1 17 2 15 3 16 4 25 5 24 6 14 7 2 8 4 9 34 10 6 11 33 12
REMARK SMILES IDX 8 13 7 14 32 15 10 16 31 17 11 18 29 19 12 20 28 21 13 22
REMARK SMILES IDX 27 23 1 24 3 25 5 26 9 27 30 28 26 29 19 31 20 33 21 34
REMARK SMILES IDX 22 35 23 36
REMARK H PARENT 26 30 19 32 23 37
ROOT
ATOM      1  C   UNL     1       5.835   1.699   0.000  1.00  0.00     0.148 C 
ENDROOT
BRANCH   1   2
ATOM      2  C   UNL     1       5.019   0.441   0.000  1.00  0.00     0.024 C 
ATOM      3  C   UNL     1       3.134  -1.088   0.000  1.00  0.00     0.021 C 
ATOM      4  C   UNL     1       3.521   0.361   0.000  1.00  0.00     0.013 C 
ATOM      5  C   UNL     1       4.392  -1.904   0.000  1.00  0.00     0.118 C 
ATOM      6  C   UNL     1       5.557  -0.959   0.000  1.00  0.00     0.038 C 
BRANCH   3   7
ATOM      7  C   UNL     1       1.734  -1.626   0.000  1.00  0.00    -0.001 C 
ATOM      8  C   UNL     1      -6.293   0.392   0.000  1.00  0.00     0.027 C 
ATOM      9  C   UNL     1      -6.528   1.873   0.000  1.00  0.00     0.138 C 
ATOM     10  C   UNL     1      -4.892  -0.145   0.000  1.00  0.00     0.012 C 
ATOM     11  C   UNL     1      -5.363   2.818   0.000  1.00  0.00     0.077 C 
ATOM     12  C   UNL     1      -4.657  -1.626   0.000  1.00  0.00     0.032 C 
ATOM     13  C   UNL     1      -3.727   0.800   0.000  1.00  0.00    -0.022 C 
ATOM     14  C   UNL     1      -3.962   2.281   0.000  1.00  0.00     0.015 C 
ATOM     15  C   UNL     1      -3.256  -2.163   0.000  1.00  0.00    -0.027 C 
ATOM     16  C   UNL     1      -2.326   0.263   0.000  1.00  0.00     0.021 C 
ATOM     17  C   UNL     1      -2.091  -1.218   0.000  1.00  0.00    -0.064 C 
ATOM     18  C   UNL     1      -1.161   1.208   0.000  1.00  0.00     0.009 C 
ATOM     19  C   UNL     1      -0.690  -1.755   0.000  1.00  0.00    -0.008 C 
ATOM     20  C   UNL     1       0.240   0.671   0.000  1.00  0.00     0.005 C 
ATOM     21  C   UNL     1      -0.151  -3.155   0.000  1.00  0.00     0.012 C 
ATOM     22  C   UNL     1       0.475  -0.810   0.000  1.00  0.00     0.002 C 
ATOM     23  C   UNL     1       1.346  -3.075   0.000  1.00  0.00     0.005 C 
ATOM     24  C   UNL     1      -6.578  -1.081   0.000  1.00  0.00     0.020 C 
ATOM     25  C   UNL     1      -7.793   0.417   0.000  1.00  0.00     0.020 C 
ATOM     26  O   UNL     1      -7.929   2.410   0.000  1.00  0.00    -0.299 OA
ATOM     27  C   UNL     1      -2.562   1.745   0.000  1.00  0.00     0.012 C 
ATOM     28  C   UNL     1      -1.750  -2.816   0.000  1.00  0.00     0.016 C 
ENDBRANCH   3   7
BRANCH   5  29
ATOM     29  O   UNL     1       4.472  -3.402   0.000  1.00  0.00    -0.393 OA
ATOM     30  H   UNL     1       0.000   0.000   0.000  1.00  0.00     0.210 HD
ENDBRANCH   5  29
ENDBRANCH   1   2
BRANCH   1  31
ATOM     31  O   UNL     1       5.153   3.035   0.000  1.00  0.00    -0.390 OA
ATOM     32  H   UNL     1       0.000   0.000   0.000  1.00  0.00     0.211 HD
ENDBRANCH   1  31
BRANCH   1  33
ATOM     33  C   UNL     1       7.333   1.622   0.000  1.00  0.00     0.085 C 
ATOM     34  C   UNL     1       7.256   0.124   0.000  1.00  0.00     0.044 C 
ATOM     35  C   UNL     1       7.411   3.120   0.000  1.00  0.00     0.044 C 
BRANCH  33  36
ATOM     36  O   UNL     1       8.831   1.544   0.000  1.00  0.00    -0.388 OA
ATOM     37  H   UNL     1       0.000   0.000   0.000  1.00  0.00     0.211 HD
ENDBRANCH  33  36
ENDBRANCH   1  33
TORSDOF 6
