REMARK SMILES COC(=O)[C@@]1(C)C[C@H]2[C@]3(C)CC[C@@]4(C)C5=CC(=O)C(O)=C(C)C5=CC=C4[C@@]3(C)CC[C@@]2(C)[C@](C)(O)C1
REMARK SMILES IDX 5 1 6 2 7 3 8 4 9 5 10 6 11 7 12 8 13 9 14 10 15 11 16 12
REMARK SMILES IDX 17 13 18 14 19 15 21 16 22 17 23 18 24 19 25 20 26 21 27 22
REMARK SMILES IDX 28 23 29 24 30 25 31 26 32 27 33 28 34 29 36 30 3 31 4 32
REMARK SMILES IDX 2 33 1 34 35 35 20 37
REMARK H PARENT 35 36 20 38
ROOT
ATOM      1  C   UNL     1       4.700  -0.831   0.000  1.00  0.00     0.068 C 
ATOM      2  C   UNL     1       6.156  -1.192   0.000  1.00  0.00     0.024 C 
ATOM      3  C   UNL     1       3.208  -0.989   0.000  1.00  0.00     0.023 C 
ATOM      4  C   UNL     1       2.325   0.223   0.000  1.00  0.00     0.006 C 
ATOM      5  C   UNL     1       0.834   0.065   0.000  1.00  0.00    -0.020 C 
ATOM      6  C   UNL     1       1.717  -1.148   0.000  1.00  0.00     0.012 C 
ATOM      7  C   UNL     1       0.225  -1.306   0.000  1.00  0.00     0.009 C 
ATOM      8  C   UNL     1      -1.267  -1.464   0.000  1.00  0.00     0.016 C 
ATOM      9  C   UNL     1      -2.150  -0.252   0.000  1.00  0.00     0.015 C 
ATOM     10  C   UNL     1      -2.758  -1.623   0.000  1.00  0.00     0.021 C 
ATOM     11  C   UNL     1      -3.641  -0.410   0.000  1.00  0.00    -0.026 C 
ATOM     12  C   UNL     1      -4.250  -1.781   0.000  1.00  0.00     0.061 C 
ATOM     13  C   UNL     1      -5.742  -1.940   0.000  1.00  0.00     0.220 C 
ATOM     14  O   UNL     1      -6.350  -3.311   0.000  1.00  0.00    -0.286 OA
ATOM     15  C   UNL     1      -6.625  -0.727   0.000  1.00  0.00     0.166 C 
ATOM     16  C   UNL     1      -6.016   0.644   0.000  1.00  0.00     0.002 C 
ATOM     17  C   UNL     1      -6.899   1.856   0.000  1.00  0.00     0.049 C 
ATOM     18  C   UNL     1      -4.524   0.802   0.000  1.00  0.00    -0.015 C 
ATOM     19  C   UNL     1      -3.916   2.173   0.000  1.00  0.00     0.009 C 
ATOM     20  C   UNL     1      -2.424   2.332   0.000  1.00  0.00     0.001 C 
ATOM     21  C   UNL     1      -1.541   1.119   0.000  1.00  0.00    -0.053 C 
ATOM     22  C   UNL     1      -0.049   1.278   0.000  1.00  0.00    -0.005 C 
ATOM     23  C   UNL     1      -0.932   2.490   0.000  1.00  0.00     0.017 C 
ATOM     24  C   UNL     1       0.559   2.648   0.000  1.00  0.00     0.012 C 
ATOM     25  C   UNL     1       2.051   2.807   0.000  1.00  0.00     0.011 C 
ATOM     26  C   UNL     1       2.934   1.594   0.000  1.00  0.00    -0.001 C 
ATOM     27  C   UNL     1       3.371   3.029   0.000  1.00  0.00     0.015 C 
ATOM     28  C   UNL     1       4.425   1.753   0.000  1.00  0.00     0.069 C 
ATOM     29  C   UNL     1       4.189   3.234   0.000  1.00  0.00     0.042 C 
ATOM     30  C   UNL     1       5.308   0.540   0.000  1.00  0.00     0.054 C 
ENDROOT
BRANCH   1  31
ATOM     31  C   UNL     1       4.597  -2.327   0.000  1.00  0.00     0.311 C 
ATOM     32  O   UNL     1       3.249  -2.986   0.000  1.00  0.00    -0.252 OA
BRANCH  31  33
ATOM     33  O   UNL     1       5.841  -3.165   0.000  1.00  0.00    -0.469 OA
ATOM     34  C   UNL     1       5.738  -4.661   0.000  1.00  0.00     0.282 C 
ENDBRANCH  31  33
ENDBRANCH   1  31
BRANCH  28  35
ATOM     35  O   UNL     1       5.773   2.412   0.000  1.00  0.00    -0.390 OA
ATOM     36  H   UNL     1       0.000   0.000   0.000  1.00  0.00     0.211 HD
ENDBRANCH  28  35
BRANCH  15  37
ATOM     37  O   UNL     1      -8.116  -0.886   0.000  1.00  0.00    -0.504 OA
ATOM     38  H   UNL     1       0.000   0.000   0.000  1.00  0.00     0.293 HD
ENDBRANCH  15  37
TORSDOF 4
