REMARK SMILES COc1cc2c(cc1OC)[C@]13C[C@@H](O)C=CC1=CCN3CC2
REMARK SMILES IDX 3 1 4 2 5 3 6 4 7 5 8 6 11 7 12 8 13 9 15 10 16 11 17 12
REMARK SMILES IDX 18 13 19 14 20 15 21 16 22 17 2 18 1 19 9 20 10 21 14 22
REMARK H PARENT 14 23
ROOT
ATOM      1  C   UNL     1       2.488  -0.673   0.000  1.00  0.00     0.161 A 
ATOM      2  C   UNL     1       1.558  -1.850   0.000  1.00  0.00     0.054 A 
ATOM      3  C   UNL     1       0.074  -1.632   0.000  1.00  0.00    -0.037 A 
ATOM      4  C   UNL     1      -0.480  -0.238   0.000  1.00  0.00    -0.016 A 
ATOM      5  C   UNL     1       0.451   0.938   0.000  1.00  0.00     0.056 A 
ATOM      6  C   UNL     1       1.935   0.721   0.000  1.00  0.00     0.161 A 
ATOM      7  C   UNL     1      -1.964  -0.021   0.000  1.00  0.00     0.075 C 
ATOM      8  C   UNL     1      -0.855   0.658   0.000  1.00  0.00     0.068 C 
ATOM      9  C   UNL     1      -0.500   1.375   0.000  1.00  0.00     0.139 C 
ATOM     10  C   UNL     1      -0.944   2.041   0.000  1.00  0.00     0.005 C 
ATOM     11  C   UNL     1      -1.742   1.990   0.000  1.00  0.00     0.004 C 
ATOM     12  C   UNL     1      -2.795   1.228   0.000  1.00  0.00    -0.026 C 
ATOM     13  C   UNL     1      -4.240   0.823   0.000  1.00  0.00    -0.006 C 
ATOM     14  C   UNL     1      -4.301  -0.676   0.000  1.00  0.00     0.113 C 
ATOM     15  N   UNL     1      -2.895  -1.197   0.000  1.00  0.00    -0.286 NA
ATOM     16  C   UNL     1      -2.341  -2.591   0.000  1.00  0.00     0.091 C 
ATOM     17  C   UNL     1      -0.857  -2.809   0.000  1.00  0.00     0.051 C 
ENDROOT
BRANCH   1  18
ATOM     18  O   UNL     1       3.972  -0.891   0.000  1.00  0.00    -0.493 OA
ATOM     19  C   UNL     1       4.526  -2.285   0.000  1.00  0.00     0.278 C 
ENDBRANCH   1  18
BRANCH   6  20
ATOM     20  O   UNL     1       2.865   1.897   0.000  1.00  0.00    -0.493 OA
ATOM     21  C   UNL     1       4.349   1.679   0.000  1.00  0.00     0.278 C 
ENDBRANCH   6  20
BRANCH   9  22
ATOM     22  O   UNL     1       1.695   1.515   0.000  1.00  0.00    -0.389 OA
ATOM     23  H   UNL     1       0.000   0.000   0.000  1.00  0.00     0.211 HD
ENDBRANCH   9  22
TORSDOF 3
