REMARK SMILES COc1c(O)cc(O)c2c(=O)c3cccc(O)c3n(C)c12
REMARK SMILES IDX 3 1 4 2 6 3 7 4 9 5 21 6 19 7 20 8 18 9 16 10 15 11 14 12
REMARK SMILES IDX 13 13 12 14 10 15 11 16 2 17 1 18 5 19 8 21 17 23
REMARK H PARENT 5 20 8 22 17 24
ROOT
ATOM      1  C   UNL     1      -2.169  -0.830   0.000  1.00  0.00     0.185 A 
ATOM      2  C   UNL     1      -3.358   0.084   0.000  1.00  0.00     0.163 A 
ATOM      3  C   UNL     1      -3.162   1.571   0.000  1.00  0.00     0.097 A 
ATOM      4  C   UNL     1      -1.775   2.144   0.000  1.00  0.00     0.132 A 
ATOM      5  C   UNL     1      -0.586   1.230   0.000  1.00  0.00     0.092 A 
ATOM      6  C   UNL     1      -0.783  -0.257   0.000  1.00  0.00     0.103 A 
ATOM      7  N   UNL     1       0.407  -1.171   0.000  1.00  0.00    -0.337 N 
ATOM      8  C   UNL     1       0.210  -2.658   0.000  1.00  0.00     0.150 C 
ATOM      9  C   UNL     1       1.793  -0.598   0.000  1.00  0.00     0.095 A 
ATOM     10  C   UNL     1       2.982  -1.512   0.000  1.00  0.00     0.139 A 
ATOM     11  C   UNL     1       4.368  -0.939   0.000  1.00  0.00     0.048 A 
ATOM     12  C   UNL     1       4.565   0.548   0.000  1.00  0.00     0.005 A 
ATOM     13  C   UNL     1       3.376   1.462   0.000  1.00  0.00     0.014 A 
ATOM     14  C   UNL     1       1.990   0.889   0.000  1.00  0.00     0.050 A 
ATOM     15  C   UNL     1       0.800   1.803   0.000  1.00  0.00     0.201 A 
ATOM     16  O   UNL     1       0.997   3.290   0.000  1.00  0.00    -0.288 OA
ENDROOT
BRANCH   1  17
ATOM     17  O   UNL     1      -2.366  -2.317   0.000  1.00  0.00    -0.491 OA
ATOM     18  C   UNL     1      -3.752  -2.890   0.000  1.00  0.00     0.278 C 
ENDBRANCH   1  17
BRANCH   2  19
ATOM     19  O   UNL     1      -4.745  -0.489   0.000  1.00  0.00    -0.504 OA
ATOM     20  H   UNL     1       0.000   0.000   0.000  1.00  0.00     0.293 HD
ENDBRANCH   2  19
BRANCH   4  21
ATOM     21  O   UNL     1      -1.578   3.631   0.000  1.00  0.00    -0.507 OA
ATOM     22  H   UNL     1       0.000   0.000   0.000  1.00  0.00     0.293 HD
ENDBRANCH   4  21
BRANCH  10  23
ATOM     23  O   UNL     1       2.785  -2.999   0.000  1.00  0.00    -0.506 OA
ATOM     24  H   UNL     1       0.000   0.000   0.000  1.00  0.00     0.293 HD
ENDBRANCH  10  23
TORSDOF 4
