REMARK SMILES COc1cc2[nH]c3c(OC)c(OC)ccc3c(=O)c2c(O)c1OC
REMARK SMILES IDX 3 1 4 2 5 3 19 4 20 5 22 6 17 7 18 8 16 9 15 10 14 11 11 12
REMARK SMILES IDX 8 13 7 14 6 15 2 17 1 18 23 19 24 20 21 21 9 23 10 24 12 25
REMARK SMILES IDX 13 26
REMARK H PARENT 6 16 21 22
ROOT
ATOM      1  C   UNL     1      -3.520   1.021   0.000  1.00  0.00     0.166 A 
ATOM      2  C   UNL     1      -2.131   1.587   0.000  1.00  0.00     0.077 A 
ATOM      3  C   UNL     1      -0.946   0.667   0.000  1.00  0.00     0.058 A 
ATOM      4  C   UNL     1      -1.151  -0.819   0.000  1.00  0.00     0.092 A 
ATOM      5  C   UNL     1      -2.540  -1.385   0.000  1.00  0.00     0.175 A 
ATOM      6  C   UNL     1      -3.725  -0.465   0.000  1.00  0.00     0.203 A 
ATOM      7  C   UNL     1       0.034  -1.740   0.000  1.00  0.00     0.201 A 
ATOM      8  O   UNL     1      -0.171  -3.226   0.000  1.00  0.00    -0.288 OA
ATOM      9  C   UNL     1       1.423  -1.174   0.000  1.00  0.00     0.050 A 
ATOM     10  C   UNL     1       2.607  -2.094   0.000  1.00  0.00     0.018 A 
ATOM     11  C   UNL     1       3.997  -1.529   0.000  1.00  0.00     0.051 A 
ATOM     12  C   UNL     1       4.201  -0.043   0.000  1.00  0.00     0.162 A 
ATOM     13  C   UNL     1       3.017   0.878   0.000  1.00  0.00     0.185 A 
ATOM     14  C   UNL     1       1.627   0.312   0.000  1.00  0.00     0.096 A 
ATOM     15  N   UNL     1       0.443   1.232   0.000  1.00  0.00    -0.351 N 
ATOM     16  H   UNL     1       0.000   0.000   0.000  1.00  0.00     0.167 HD
ENDROOT
BRANCH   1  17
ATOM     17  O   UNL     1      -4.705   1.942   0.000  1.00  0.00    -0.493 OA
ATOM     18  C   UNL     1      -4.500   3.428   0.000  1.00  0.00     0.278 C 
ENDBRANCH   1  17
BRANCH   6  19
ATOM     19  O   UNL     1      -5.114  -1.030   0.000  1.00  0.00    -0.490 OA
ATOM     20  C   UNL     1      -6.298  -0.110   0.000  1.00  0.00     0.278 C 
ENDBRANCH   6  19
BRANCH   5  21
ATOM     21  O   UNL     1      -2.745  -2.871   0.000  1.00  0.00    -0.504 OA
ATOM     22  H   UNL     1       0.000   0.000   0.000  1.00  0.00     0.293 HD
ENDBRANCH   5  21
BRANCH  13  23
ATOM     23  O   UNL     1       3.221   2.364   0.000  1.00  0.00    -0.491 OA
ATOM     24  C   UNL     1       4.611   2.929   0.000  1.00  0.00     0.278 C 
ENDBRANCH  13  23
BRANCH  12  25
ATOM     25  O   UNL     1       5.590   0.523   0.000  1.00  0.00    -0.493 OA
ATOM     26  C   UNL     1       6.775  -0.397   0.000  1.00  0.00     0.278 C 
ENDBRANCH  12  25
TORSDOF 5
