REMARK SMILES O=C1c2c(O)cc(O)cc2O[C@H](c2ccc(O)c(O)c2)[C@H]1O
REMARK SMILES IDX 1 1 2 2 3 3 4 4 6 5 7 6 9 7 10 8 11 9 12 10 21 11 22 12 5 14
REMARK SMILES IDX 13 16 14 17 20 18 15 19 18 20 16 21 19 22 17 24 8 26
REMARK H PARENT 22 13 5 15 19 23 17 25 8 27
ROOT
ATOM      1  O   UNL     1       1.918  -3.094   0.000  1.00  0.00    -0.291 OA
ATOM      2  C   UNL     1       1.438  -1.673   0.000  1.00  0.00     0.202 C 
ATOM      3  C   UNL     1       2.429  -0.547   0.000  1.00  0.00     0.105 A 
ATOM      4  C   UNL     1       3.899  -0.841   0.000  1.00  0.00     0.133 A 
ATOM      5  C   UNL     1       4.890   0.285   0.000  1.00  0.00     0.093 A 
ATOM      6  C   UNL     1       4.410   1.706   0.000  1.00  0.00     0.123 A 
ATOM      7  C   UNL     1       2.939   2.001   0.000  1.00  0.00     0.093 A 
ATOM      8  C   UNL     1       1.948   0.874   0.000  1.00  0.00     0.138 A 
ATOM      9  O   UNL     1       0.477   1.169   0.000  1.00  0.00    -0.481 OA
ATOM     10  C   UNL     1      -0.513   0.043   0.000  1.00  0.00     0.240 C 
ATOM     11  C   UNL     1      -0.033  -1.379   0.000  1.00  0.00     0.231 C 
ENDROOT
BRANCH  11  12
ATOM     12  O   UNL     1      -1.023  -2.505   0.000  1.00  0.00    -0.381 OA
ATOM     13  H   UNL     1       0.000   0.000   0.000  1.00  0.00     0.211 HD
ENDBRANCH  11  12
BRANCH   4  14
ATOM     14  O   UNL     1       4.380  -2.262   0.000  1.00  0.00    -0.507 OA
ATOM     15  H   UNL     1       0.000   0.000   0.000  1.00  0.00     0.293 HD
ENDBRANCH   4  14
BRANCH  10  16
ATOM     16  C   UNL     1      -1.984   0.337   0.000  1.00  0.00    -0.001 A 
ATOM     17  C   UNL     1      -2.464   1.758   0.000  1.00  0.00     0.012 A 
ATOM     18  C   UNL     1      -2.974  -0.789   0.000  1.00  0.00     0.057 A 
ATOM     19  C   UNL     1      -3.935   2.053   0.000  1.00  0.00     0.050 A 
ATOM     20  C   UNL     1      -4.445  -0.495   0.000  1.00  0.00     0.157 A 
ATOM     21  C   UNL     1      -4.925   0.926   0.000  1.00  0.00     0.157 A 
BRANCH  20  22
ATOM     22  O   UNL     1      -5.436  -1.621   0.000  1.00  0.00    -0.504 OA
ATOM     23  H   UNL     1       0.000   0.000   0.000  1.00  0.00     0.293 HD
ENDBRANCH  20  22
BRANCH  21  24
ATOM     24  O   UNL     1      -6.396   1.221   0.000  1.00  0.00    -0.504 OA
ATOM     25  H   UNL     1       0.000   0.000   0.000  1.00  0.00     0.293 HD
ENDBRANCH  21  24
ENDBRANCH  10  16
BRANCH   6  26
ATOM     26  O   UNL     1       5.400   2.833   0.000  1.00  0.00    -0.508 OA
ATOM     27  H   UNL     1       0.000   0.000   0.000  1.00  0.00     0.293 HD
ENDBRANCH   6  26
TORSDOF 6
