REMARK SMILES O=c1cc(-c2ccc(O)cc2)oc2cc(O)ccc12
REMARK SMILES IDX 1 1 2 2 3 3 4 4 12 5 13 6 14 7 15 8 17 9 18 10 19 11 5 12
REMARK SMILES IDX 6 13 11 14 7 15 10 16 8 17 9 18 16 20
REMARK H PARENT 9 19 16 21
ROOT
ATOM      1  O   UNL     1       1.848   3.409   0.000  1.00  0.00    -0.289 OA
ATOM      2  C   UNL     1       1.351   1.994   0.000  1.00  0.00     0.193 A 
ATOM      3  C   UNL     1      -0.123   1.716   0.000  1.00  0.00     0.100 A 
ATOM      4  C   UNL     1      -0.619   0.301   0.000  1.00  0.00     0.138 A 
ATOM      5  O   UNL     1       0.359  -0.837   0.000  1.00  0.00    -0.456 OA
ATOM      6  C   UNL     1       1.833  -0.559   0.000  1.00  0.00     0.142 A 
ATOM      7  C   UNL     1       2.810  -1.697   0.000  1.00  0.00     0.094 A 
ATOM      8  C   UNL     1       4.284  -1.419   0.000  1.00  0.00     0.119 A 
ATOM      9  C   UNL     1       4.781  -0.004   0.000  1.00  0.00     0.047 A 
ATOM     10  C   UNL     1       3.803   1.134   0.000  1.00  0.00     0.020 A 
ATOM     11  C   UNL     1       2.329   0.856   0.000  1.00  0.00     0.065 A 
ENDROOT
BRANCH   4  12
ATOM     12  C   UNL     1      -2.093   0.023   0.000  1.00  0.00     0.018 A 
ATOM     13  C   UNL     1      -3.071   1.161   0.000  1.00  0.00     0.016 A 
ATOM     14  C   UNL     1      -2.590  -1.393   0.000  1.00  0.00     0.016 A 
ATOM     15  C   UNL     1      -4.545   0.883   0.000  1.00  0.00     0.047 A 
ATOM     16  C   UNL     1      -4.064  -1.670   0.000  1.00  0.00     0.047 A 
ATOM     17  C   UNL     1      -5.041  -0.533   0.000  1.00  0.00     0.115 A 
BRANCH  17  18
ATOM     18  O   UNL     1      -6.515  -0.810   0.000  1.00  0.00    -0.508 OA
ATOM     19  H   UNL     1       0.000   0.000   0.000  1.00  0.00     0.293 HD
ENDBRANCH  17  18
ENDBRANCH   4  12
BRANCH   8  20
ATOM     20  O   UNL     1       5.262  -2.557   0.000  1.00  0.00    -0.508 OA
ATOM     21  H   UNL     1       0.000   0.000   0.000  1.00  0.00     0.293 HD
ENDBRANCH   8  20
TORSDOF 3
