REMARK SMILES CS(=O)(=O)C=CCOC(=O)C=Cc1ccccc1
REMARK SMILES IDX 7 1 6 2 5 3 2 4 1 5 3 6 4 7 8 8 9 9 10 10 11 11 12 12 13 13
REMARK SMILES IDX 14 14 18 15 15 16 17 17 16 18
REMARK H PARENT
ROOT
ATOM      1  C   UNL     1      -2.350  -0.612   0.000  1.00  0.00     0.262 C 
ENDROOT
BRANCH   1   2
ATOM      2  C   UNL     1      -3.602   0.213   0.000  1.00  0.00     0.026 C 
BRANCH   2   3
ATOM      3  C   UNL     1      -4.943  -0.459   0.000  1.00  0.00     0.105 C 
BRANCH   3   4
ATOM      4  S   UNL     1      -6.196   0.367   0.000  1.00  0.00     0.168 S 
ATOM      5  C   UNL     1      -7.448   1.192   0.000  1.00  0.00     0.163 C 
ATOM      6  O   UNL     1      -5.370   1.619   0.000  1.00  0.00    -0.225 OA
ATOM      7  O   UNL     1      -7.021  -0.885   0.000  1.00  0.00    -0.225 OA
ENDBRANCH   3   4
ENDBRANCH   2   3
ENDBRANCH   1   2
BRANCH   1   8
ATOM      8  O   UNL     1      -1.009   0.060   0.000  1.00  0.00    -0.458 OA
BRANCH   8   9
ATOM      9  C   UNL     1       0.244  -0.766   0.000  1.00  0.00     0.331 C 
ATOM     10  O   UNL     1       0.155  -2.263   0.000  1.00  0.00    -0.247 OA
BRANCH   9  11
ATOM     11  C   UNL     1       1.585  -0.094   0.000  1.00  0.00     0.094 C 
BRANCH  11  12
ATOM     12  C   UNL     1       2.837  -0.919   0.000  1.00  0.00     0.015 C 
BRANCH  12  13
ATOM     13  C   UNL     1       4.178  -0.247   0.000  1.00  0.00    -0.025 A 
ATOM     14  C   UNL     1       4.267   1.250   0.000  1.00  0.00     0.008 A 
ATOM     15  C   UNL     1       5.431  -1.073   0.000  1.00  0.00     0.008 A 
ATOM     16  C   UNL     1       5.608   1.922   0.000  1.00  0.00     0.001 A 
ATOM     17  C   UNL     1       6.772  -0.401   0.000  1.00  0.00     0.001 A 
ATOM     18  C   UNL     1       6.861   1.096   0.000  1.00  0.00     0.000 A 
ENDBRANCH  12  13
ENDBRANCH  11  12
ENDBRANCH   9  11
ENDBRANCH   8   9
ENDBRANCH   1   8
TORSDOF 8
