REMARK SMILES CC(C)(O)CCCCCCCCCCCc1cc(=O)c2ccccc2[nH]1
REMARK SMILES IDX 9 1 8 2 7 3 6 4 5 5 2 6 1 7 3 8 4 9 10 11 11 12 12 13 13 14
REMARK SMILES IDX 14 15 15 16 16 17 17 18 26 19 18 20 25 21 20 22 24 23 21 24
REMARK SMILES IDX 23 25 22 26 19 28
REMARK H PARENT 4 10 26 27
ROOT
ATOM      1  C   UNL     1      -4.360  -0.841   0.000  1.00  0.00     0.000 C 
ENDROOT
BRANCH   1   2
ATOM      2  C   UNL     1      -5.573   0.042   0.000  1.00  0.00     0.000 C 
BRANCH   2   3
ATOM      3  C   UNL     1      -6.944  -0.566   0.000  1.00  0.00     0.000 C 
BRANCH   3   4
ATOM      4  C   UNL     1      -8.156   0.317   0.000  1.00  0.00     0.003 C 
BRANCH   4   5
ATOM      5  C   UNL     1      -9.527  -0.291   0.000  1.00  0.00     0.034 C 
BRANCH   5   6
ATOM      6  C   UNL     1     -10.740   0.592   0.000  1.00  0.00     0.059 C 
ATOM      7  C   UNL     1      -9.856   1.804   0.000  1.00  0.00     0.042 C 
ATOM      8  C   UNL     1     -11.623  -0.620   0.000  1.00  0.00     0.042 C 
BRANCH   6   9
ATOM      9  O   UNL     1     -11.952   1.475   0.000  1.00  0.00    -0.390 OA
ATOM     10  H   UNL     1       0.000   0.000   0.000  1.00  0.00     0.211 HD
ENDBRANCH   6   9
ENDBRANCH   5   6
ENDBRANCH   4   5
ENDBRANCH   3   4
ENDBRANCH   2   3
ENDBRANCH   1   2
BRANCH   1  11
ATOM     11  C   UNL     1      -2.989  -0.233   0.000  1.00  0.00     0.000 C 
BRANCH  11  12
ATOM     12  C   UNL     1      -1.777  -1.116   0.000  1.00  0.00     0.000 C 
BRANCH  12  13
ATOM     13  C   UNL     1      -0.406  -0.508   0.000  1.00  0.00     0.000 C 
BRANCH  13  14
ATOM     14  C   UNL     1       0.807  -1.391   0.000  1.00  0.00     0.000 C 
BRANCH  14  15
ATOM     15  C   UNL     1       2.178  -0.783   0.000  1.00  0.00     0.006 C 
BRANCH  15  16
ATOM     16  C   UNL     1       3.390  -1.666   0.000  1.00  0.00     0.054 C 
BRANCH  16  17
ATOM     17  C   UNL     1       4.761  -1.058   0.000  1.00  0.00     0.019 A 
ATOM     18  C   UNL     1       5.973  -1.941   0.000  1.00  0.00     0.074 A 
ATOM     19  N   UNL     1       4.920   0.434   0.000  1.00  0.00    -0.358 N 
ATOM     20  C   UNL     1       7.345  -1.333   0.000  1.00  0.00     0.189 A 
ATOM     21  C   UNL     1       6.291   1.042   0.000  1.00  0.00     0.049 A 
ATOM     22  C   UNL     1       7.503   0.159   0.000  1.00  0.00     0.045 A 
ATOM     23  C   UNL     1       6.450   2.533   0.000  1.00  0.00     0.027 A 
ATOM     24  C   UNL     1       8.875   0.767   0.000  1.00  0.00     0.014 A 
ATOM     25  C   UNL     1       7.821   3.142   0.000  1.00  0.00     0.002 A 
ATOM     26  C   UNL     1       9.033   2.258   0.000  1.00  0.00     0.001 A 
ATOM     27  H   UNL     1       0.000   0.000   0.000  1.00  0.00     0.166 HD
ATOM     28  O   UNL     1       8.557  -2.216   0.000  1.00  0.00    -0.289 OA
ENDBRANCH  16  17
ENDBRANCH  15  16
ENDBRANCH  14  15
ENDBRANCH  13  14
ENDBRANCH  12  13
ENDBRANCH  11  12
ENDBRANCH   1  11
TORSDOF 13
