REMARK SMILES C=CCC1=C[C@]2(OC)C(=O)[C@H]([C@H](c3cc(OC)c(OC)c(OC)c3)[C@H]2C)[C@H]1O
REMARK SMILES IDX 4 1 5 2 6 3 9 4 10 5 11 6 12 7 25 8 26 9 27 10 3 11 2 12
REMARK SMILES IDX 1 13 28 14 7 16 8 17 13 18 14 19 24 20 15 21 21 22 18 23
REMARK SMILES IDX 16 24 17 25 22 26 23 27 19 28 20 29
REMARK H PARENT 28 15
ROOT
ATOM      1  C   UNL     1      -3.864  -0.791   0.000  1.00  0.00    -0.038 C 
ATOM      2  C   UNL     1      -3.779   0.706   0.000  1.00  0.00     0.018 C 
ATOM      3  C   UNL     1      -2.439   1.381   0.000  1.00  0.00     0.148 C 
ATOM      4  C   UNL     1      -1.185   0.558   0.000  1.00  0.00     0.175 C 
ATOM      5  O   UNL     1       0.155   1.233   0.000  1.00  0.00    -0.296 OA
ATOM      6  C   UNL     1      -1.270  -0.940   0.000  1.00  0.00     0.100 C 
ATOM      7  C   UNL     1      -0.205   0.116   0.000  1.00  0.00     0.039 C 
ATOM      8  C   UNL     1      -0.879   1.456   0.000  1.00  0.00     0.038 C 
ATOM      9  C   UNL     1      -0.192   2.789   0.000  1.00  0.00     0.012 C 
ATOM     10  C   UNL     1      -2.610  -1.614   0.000  1.00  0.00     0.152 C 
ENDROOT
BRANCH   1  11
ATOM     11  C   UNL     1      -5.204  -1.466   0.000  1.00  0.00     0.060 C 
BRANCH  11  12
ATOM     12  C   UNL     1      -6.458  -0.643   0.000  1.00  0.00    -0.030 C 
ATOM     13  C   UNL     1      -7.798  -1.318   0.000  1.00  0.00     0.004 C 
ENDBRANCH  11  12
ENDBRANCH   1  11
BRANCH  10  14
ATOM     14  O   UNL     1      -2.696  -3.112   0.000  1.00  0.00    -0.388 OA
ATOM     15  H   UNL     1       0.000   0.000   0.000  1.00  0.00     0.211 HD
ENDBRANCH  10  14
BRANCH   3  16
ATOM     16  O   UNL     1      -2.354   2.878   0.000  1.00  0.00    -0.366 OA
ATOM     17  C   UNL     1      -3.608   3.701   0.000  1.00  0.00     0.196 C 
ENDBRANCH   3  16
BRANCH   7  18
ATOM     18  C   UNL     1       1.276  -0.125   0.000  1.00  0.00    -0.036 A 
ATOM     19  C   UNL     1       1.807  -1.528   0.000  1.00  0.00     0.054 A 
ATOM     20  C   UNL     1       2.225   1.036   0.000  1.00  0.00     0.054 A 
ATOM     21  C   UNL     1       3.287  -1.770   0.000  1.00  0.00     0.164 A 
ATOM     22  C   UNL     1       3.705   0.794   0.000  1.00  0.00     0.164 A 
ATOM     23  C   UNL     1       4.237  -0.609   0.000  1.00  0.00     0.203 A 
BRANCH  21  24
ATOM     24  O   UNL     1       3.818  -3.173   0.000  1.00  0.00    -0.493 OA
ATOM     25  C   UNL     1       2.869  -4.334   0.000  1.00  0.00     0.278 C 
ENDBRANCH  21  24
BRANCH  22  26
ATOM     26  O   UNL     1       4.655   1.956   0.000  1.00  0.00    -0.493 OA
ATOM     27  C   UNL     1       4.124   3.359   0.000  1.00  0.00     0.278 C 
ENDBRANCH  22  26
BRANCH  23  28
ATOM     28  O   UNL     1       5.717  -0.850   0.000  1.00  0.00    -0.490 OA
ATOM     29  C   UNL     1       6.666   0.311   0.000  1.00  0.00     0.278 C 
ENDBRANCH  23  28
ENDBRANCH   7  18
TORSDOF 8
