REMARK SMILES CC(=O)Oc1cccc(O)c1C(=O)CCCCCCCCCCc1ccccc1
REMARK SMILES IDX 16 1 15 2 14 3 12 4 13 5 11 6 5 7 6 8 7 9 9 10 8 11 4 12
REMARK SMILES IDX 2 13 1 14 3 15 10 16 17 18 18 19 19 20 20 21 21 22 22 23
REMARK SMILES IDX 23 24 24 25 25 26 29 27 26 28 28 29 27 30
REMARK H PARENT 10 17
ROOT
ATOM      1  C   UNL     1      -1.148   0.552   0.000  1.00  0.00     0.000 C 
ENDROOT
BRANCH   1   2
ATOM      2  C   UNL     1      -2.424   1.341   0.000  1.00  0.00     0.008 C 
BRANCH   2   3
ATOM      3  C   UNL     1      -3.745   0.631   0.000  1.00  0.00     0.081 C 
BRANCH   3   4
ATOM      4  C   UNL     1      -5.021   1.420   0.000  1.00  0.00     0.170 C 
ATOM      5  O   UNL     1      -4.975   2.920   0.000  1.00  0.00    -0.294 OA
BRANCH   4   6
ATOM      6  C   UNL     1      -6.342   0.710   0.000  1.00  0.00     0.102 A 
ATOM      7  C   UNL     1      -6.388  -0.789   0.000  1.00  0.00     0.145 A 
ATOM      8  C   UNL     1      -7.709  -1.499   0.000  1.00  0.00     0.048 A 
ATOM      9  C   UNL     1      -8.985  -0.710   0.000  1.00  0.00     0.008 A 
ATOM     10  C   UNL     1      -7.618   1.499   0.000  1.00  0.00     0.130 A 
ATOM     11  C   UNL     1      -8.939   0.789   0.000  1.00  0.00     0.047 A 
BRANCH   7  12
ATOM     12  O   UNL     1      -5.112  -1.578   0.000  1.00  0.00    -0.426 OA
BRANCH  12  13
ATOM     13  C   UNL     1      -5.158  -3.078   0.000  1.00  0.00     0.308 C 
ATOM     14  C   UNL     1      -3.882  -3.867   0.000  1.00  0.00     0.139 C 
ATOM     15  O   UNL     1      -6.479  -3.788   0.000  1.00  0.00    -0.252 OA
ENDBRANCH  12  13
ENDBRANCH   7  12
BRANCH  10  16
ATOM     16  O   UNL     1      -7.572   2.999   0.000  1.00  0.00    -0.507 OA
ATOM     17  H   UNL     1       0.000   0.000   0.000  1.00  0.00     0.293 HD
ENDBRANCH  10  16
ENDBRANCH   4   6
ENDBRANCH   3   4
ENDBRANCH   2   3
ENDBRANCH   1   2
BRANCH   1  18
ATOM     18  C   UNL     1       0.173   1.263   0.000  1.00  0.00     0.000 C 
BRANCH  18  19
ATOM     19  C   UNL     1       1.448   0.473   0.000  1.00  0.00     0.000 C 
BRANCH  19  20
ATOM     20  C   UNL     1       2.770   1.184   0.000  1.00  0.00     0.000 C 
BRANCH  20  21
ATOM     21  C   UNL     1       4.045   0.395   0.000  1.00  0.00     0.000 C 
BRANCH  21  22
ATOM     22  C   UNL     1       5.367   1.105   0.000  1.00  0.00     0.000 C 
BRANCH  22  23
ATOM     23  C   UNL     1       6.642   0.316   0.000  1.00  0.00     0.005 C 
BRANCH  23  24
ATOM     24  C   UNL     1       7.963   1.026   0.000  1.00  0.00     0.035 C 
BRANCH  24  25
ATOM     25  C   UNL     1       9.239   0.237   0.000  1.00  0.00    -0.048 A 
ATOM     26  C   UNL     1       9.194  -1.263   0.000  1.00  0.00     0.004 A 
ATOM     27  C   UNL     1      10.560   0.947   0.000  1.00  0.00     0.004 A 
ATOM     28  C   UNL     1      10.469  -2.052   0.000  1.00  0.00     0.000 A 
ATOM     29  C   UNL     1      11.836   0.158   0.000  1.00  0.00     0.000 A 
ATOM     30  C   UNL     1      11.790  -1.341   0.000  1.00  0.00     0.000 A 
ENDBRANCH  24  25
ENDBRANCH  23  24
ENDBRANCH  22  23
ENDBRANCH  21  22
ENDBRANCH  20  21
ENDBRANCH  19  20
ENDBRANCH  18  19
ENDBRANCH   1  18
TORSDOF 15
