REMARK SMILES COc1cc(O)c2c(=O)c3cccc(O)c3n(C)c2c1OC
REMARK SMILES IDX 3 1 4 2 5 3 7 4 8 5 9 6 10 7 11 8 12 9 13 10 14 11 16 12
REMARK SMILES IDX 17 13 18 14 19 15 20 16 2 17 1 18 21 19 22 20 6 21 15 23
REMARK H PARENT 6 22 15 24
ROOT
ATOM      1  C   UNL     1      -3.244  -0.287   0.000  1.00  0.00     0.166 A 
ATOM      2  C   UNL     1      -3.002  -1.767   0.000  1.00  0.00     0.097 A 
ATOM      3  C   UNL     1      -1.600  -2.299   0.000  1.00  0.00     0.132 A 
ATOM      4  C   UNL     1      -0.438  -1.349   0.000  1.00  0.00     0.092 A 
ATOM      5  C   UNL     1       0.965  -1.881   0.000  1.00  0.00     0.201 A 
ATOM      6  O   UNL     1       1.206  -3.361   0.000  1.00  0.00    -0.288 OA
ATOM      7  C   UNL     1       2.126  -0.932   0.000  1.00  0.00     0.050 A 
ATOM      8  C   UNL     1       3.529  -1.463   0.000  1.00  0.00     0.014 A 
ATOM      9  C   UNL     1       4.690  -0.514   0.000  1.00  0.00     0.005 A 
ATOM     10  C   UNL     1       4.449   0.967   0.000  1.00  0.00     0.048 A 
ATOM     11  C   UNL     1       3.046   1.498   0.000  1.00  0.00     0.139 A 
ATOM     12  C   UNL     1       1.885   0.549   0.000  1.00  0.00     0.095 A 
ATOM     13  N   UNL     1       0.482   1.080   0.000  1.00  0.00    -0.337 N 
ATOM     14  C   UNL     1       0.241   2.561   0.000  1.00  0.00     0.150 C 
ATOM     15  C   UNL     1      -0.679   0.131   0.000  1.00  0.00     0.103 A 
ATOM     16  C   UNL     1      -2.082   0.662   0.000  1.00  0.00     0.185 A 
ENDROOT
BRANCH   1  17
ATOM     17  O   UNL     1      -4.646   0.245   0.000  1.00  0.00    -0.493 OA
ATOM     18  C   UNL     1      -4.888   1.725   0.000  1.00  0.00     0.278 C 
ENDBRANCH   1  17
BRANCH  16  19
ATOM     19  O   UNL     1      -2.323   2.143   0.000  1.00  0.00    -0.491 OA
ATOM     20  C   UNL     1      -1.162   3.092   0.000  1.00  0.00     0.278 C 
ENDBRANCH  16  19
BRANCH   3  21
ATOM     21  O   UNL     1      -1.359  -3.779   0.000  1.00  0.00    -0.507 OA
ATOM     22  H   UNL     1       0.000   0.000   0.000  1.00  0.00     0.293 HD
ENDBRANCH   3  21
BRANCH  11  23
ATOM     23  O   UNL     1       2.805   2.978   0.000  1.00  0.00    -0.506 OA
ATOM     24  H   UNL     1       0.000   0.000   0.000  1.00  0.00     0.293 HD
ENDBRANCH  11  23
TORSDOF 4
