REMARK SMILES CC1=C(O)C(=O)C=C2C1=CC=C1[C@@]2(C)CC[C@@]2(C)[C@@H]3C[C@@H](C)C(=O)C[C@]3(C)CC[C@]12C
REMARK SMILES IDX 1 1 2 2 3 3 5 4 6 5 7 6 8 7 9 8 10 9 11 10 12 11 13 12 14 13
REMARK SMILES IDX 15 14 16 15 17 16 18 17 19 18 20 19 21 20 22 21 23 22 24 23
REMARK SMILES IDX 25 24 26 25 27 26 28 27 29 28 30 29 31 30 4 31
REMARK H PARENT 4 32
ROOT
ATOM      1  C   UNL     1      -5.968  -2.218   0.000  1.00  0.00     0.049 C 
ATOM      2  C   UNL     1      -5.209  -0.925   0.000  1.00  0.00     0.002 C 
ATOM      3  C   UNL     1      -5.949   0.380   0.000  1.00  0.00     0.166 C 
ATOM      4  C   UNL     1      -5.189   1.673   0.000  1.00  0.00     0.220 C 
ATOM      5  O   UNL     1      -5.930   2.978   0.000  1.00  0.00    -0.286 OA
ATOM      6  C   UNL     1      -3.689   1.662   0.000  1.00  0.00     0.061 C 
ATOM      7  C   UNL     1      -2.949   0.357   0.000  1.00  0.00    -0.026 C 
ATOM      8  C   UNL     1      -3.709  -0.936   0.000  1.00  0.00    -0.015 C 
ATOM      9  C   UNL     1      -2.968  -2.241   0.000  1.00  0.00     0.009 C 
ATOM     10  C   UNL     1      -1.468  -2.252   0.000  1.00  0.00     0.001 C 
ATOM     11  C   UNL     1      -0.709  -0.959   0.000  1.00  0.00    -0.053 C 
ATOM     12  C   UNL     1      -1.449   0.346   0.000  1.00  0.00     0.015 C 
ATOM     13  C   UNL     1      -2.189   1.651   0.000  1.00  0.00     0.021 C 
ATOM     14  C   UNL     1      -0.689   1.639   0.000  1.00  0.00     0.016 C 
ATOM     15  C   UNL     1       0.810   1.628   0.000  1.00  0.00     0.009 C 
ATOM     16  C   UNL     1       1.551   0.324   0.000  1.00  0.00    -0.020 C 
ATOM     17  C   UNL     1       2.311   1.617   0.000  1.00  0.00     0.012 C 
ATOM     18  C   UNL     1       3.051   0.312   0.000  1.00  0.00     0.003 C 
ATOM     19  C   UNL     1       3.811   1.606   0.000  1.00  0.00     0.016 C 
ATOM     20  C   UNL     1       5.310   1.595   0.000  1.00  0.00     0.053 C 
ATOM     21  C   UNL     1       6.070   2.888   0.000  1.00  0.00     0.016 C 
ATOM     22  C   UNL     1       6.051   0.290   0.000  1.00  0.00     0.136 C 
ATOM     23  O   UNL     1       7.551   0.279   0.000  1.00  0.00    -0.299 OA
ATOM     24  C   UNL     1       5.291  -1.003   0.000  1.00  0.00     0.083 C 
ATOM     25  C   UNL     1       3.791  -0.992   0.000  1.00  0.00    -0.022 C 
ATOM     26  C   UNL     1       4.531  -2.297   0.000  1.00  0.00     0.012 C 
ATOM     27  C   UNL     1       3.031  -2.285   0.000  1.00  0.00     0.008 C 
ATOM     28  C   UNL     1       1.532  -2.274   0.000  1.00  0.00     0.012 C 
ATOM     29  C   UNL     1       0.791  -0.970   0.000  1.00  0.00    -0.005 C 
ATOM     30  C   UNL     1       0.032  -2.263   0.000  1.00  0.00     0.017 C 
ENDROOT
BRANCH   3  31
ATOM     31  O   UNL     1      -7.449   0.391   0.000  1.00  0.00    -0.504 OA
ATOM     32  H   UNL     1       0.000   0.000   0.000  1.00  0.00     0.293 HD
ENDBRANCH   3  31
TORSDOF 1
