REMARK SMILES C=Cc1c(O)c(OC)cc2c1O[C@H](c1ccc3c(c1)OCO3)[C@H]2C
REMARK SMILES IDX 3 1 4 2 6 3 9 4 10 5 11 6 12 7 13 8 23 9 24 10 2 11 1 12
REMARK SMILES IDX 5 13 7 15 8 16 14 17 15 18 19 19 16 20 18 21 17 22 20 23
REMARK SMILES IDX 22 24 21 25
REMARK H PARENT 5 14
ROOT
ATOM      1  C   UNL     1       2.857  -1.435   0.000  1.00  0.00     0.062 A 
ATOM      2  C   UNL     1       4.198  -0.762   0.000  1.00  0.00     0.168 A 
ATOM      3  C   UNL     1       4.285   0.735   0.000  1.00  0.00     0.161 A 
ATOM      4  C   UNL     1       3.033   1.560   0.000  1.00  0.00     0.058 A 
ATOM      5  C   UNL     1       1.692   0.887   0.000  1.00  0.00     0.006 A 
ATOM      6  C   UNL     1       1.604  -0.610   0.000  1.00  0.00     0.135 A 
ATOM      7  O   UNL     1       0.153  -0.989   0.000  1.00  0.00    -0.484 OA
ATOM      8  C   UNL     1      -0.656   0.274   0.000  1.00  0.00     0.211 C 
ATOM      9  C   UNL     1       0.295   1.434   0.000  1.00  0.00     0.066 C 
ATOM     10  C   UNL     1      -0.084   2.885   0.000  1.00  0.00     0.017 C 
ENDROOT
BRANCH   1  11
ATOM     11  C   UNL     1       2.769  -2.932   0.000  1.00  0.00     0.008 C 
ATOM     12  C   UNL     1       4.022  -3.757   0.000  1.00  0.00     0.009 C 
ENDBRANCH   1  11
BRANCH   2  13
ATOM     13  O   UNL     1       5.450  -1.587   0.000  1.00  0.00    -0.504 OA
ATOM     14  H   UNL     1       0.000   0.000   0.000  1.00  0.00     0.293 HD
ENDBRANCH   2  13
BRANCH   3  15
ATOM     15  O   UNL     1       5.626   1.408   0.000  1.00  0.00    -0.493 OA
ATOM     16  C   UNL     1       5.714   2.905   0.000  1.00  0.00     0.278 C 
ENDBRANCH   3  15
BRANCH   8  17
ATOM     17  C   UNL     1      -2.154   0.362   0.000  1.00  0.00    -0.003 A 
ATOM     18  C   UNL     1      -2.826   1.702   0.000  1.00  0.00     0.011 A 
ATOM     19  C   UNL     1      -2.979  -0.891   0.000  1.00  0.00     0.058 A 
ATOM     20  C   UNL     1      -4.324   1.790   0.000  1.00  0.00     0.051 A 
ATOM     21  C   UNL     1      -4.476  -0.803   0.000  1.00  0.00     0.166 A 
ATOM     22  C   UNL     1      -5.149   0.537   0.000  1.00  0.00     0.165 A 
ATOM     23  O   UNL     1      -5.543  -1.857   0.000  1.00  0.00    -0.454 OA
ATOM     24  O   UNL     1      -6.632   0.312   0.000  1.00  0.00    -0.454 OA
ATOM     25  C   UNL     1      -6.875  -1.168   0.000  1.00  0.00     0.468 C 
ENDBRANCH   8  17
TORSDOF 4
