REMARK SMILES Cc1ccc2c3c1CC(=O)O[C@H]3C[C@H]1C(C)(C)C(=O)CC[C@]21C
REMARK SMILES IDX 1 1 2 2 3 3 4 4 5 5 6 6 7 7 8 8 9 9 10 10 11 11 12 12 13 13
REMARK SMILES IDX 14 14 15 15 16 16 17 17 18 18 19 19 20 20 21 21 22 22 23 23
REMARK H PARENT
ROOT
ATOM      1  C   UNL     1       4.711  -2.072   0.000  1.00  0.00     0.044 C 
ATOM      2  C   UNL     1       3.244  -1.760   0.000  1.00  0.00    -0.047 A 
ATOM      3  C   UNL     1       2.240  -2.874   0.000  1.00  0.00     0.004 A 
ATOM      4  C   UNL     1       0.773  -2.562   0.000  1.00  0.00     0.005 A 
ATOM      5  C   UNL     1       0.310  -1.136   0.000  1.00  0.00    -0.035 A 
ATOM      6  C   UNL     1       1.313  -0.021   0.000  1.00  0.00     0.000 A 
ATOM      7  C   UNL     1       2.781  -0.333   0.000  1.00  0.00    -0.027 A 
ATOM      8  C   UNL     1       3.784   0.782   0.000  1.00  0.00     0.158 C 
ATOM      9  C   UNL     1       3.321   2.208   0.000  1.00  0.00     0.310 C 
ATOM     10  O   UNL     1       4.324   3.323   0.000  1.00  0.00    -0.252 OA
ATOM     11  O   UNL     1       1.854   2.520   0.000  1.00  0.00    -0.457 OA
ATOM     12  C   UNL     1       0.850   1.405   0.000  1.00  0.00     0.207 C 
ATOM     13  C   UNL     1      -0.617   1.717   0.000  1.00  0.00     0.056 C 
ATOM     14  C   UNL     1      -1.621   0.603   0.000  1.00  0.00     0.016 C 
ATOM     15  C   UNL     1      -3.088   0.914   0.000  1.00  0.00     0.027 C 
ATOM     16  C   UNL     1      -4.360   1.709   0.000  1.00  0.00     0.020 C 
ATOM     17  C   UNL     1      -2.526   2.305   0.000  1.00  0.00     0.020 C 
ATOM     18  C   UNL     1      -4.092  -0.200   0.000  1.00  0.00     0.138 C 
ATOM     19  O   UNL     1      -5.559   0.112   0.000  1.00  0.00    -0.299 OA
ATOM     20  C   UNL     1      -3.628  -1.627   0.000  1.00  0.00     0.077 C 
ATOM     21  C   UNL     1      -2.161  -1.939   0.000  1.00  0.00     0.020 C 
ATOM     22  C   UNL     1      -1.157  -0.824   0.000  1.00  0.00    -0.003 C 
ATOM     23  C   UNL     1      -0.694  -2.251   0.000  1.00  0.00     0.017 C 
ENDROOT
TORSDOF 0
