REMARK SMILES COc1ccc(C[C@H]2CO[C@H](c3ccc(OC(C)=O)c(OC)c3)[C@H]2COC(C)=O)cc1OC
REMARK SMILES IDX 8 1 9 2 10 3 11 4 24 5 7 6 6 7 3 8 4 9 31 10 5 11 30 12 2 13
REMARK SMILES IDX 1 14 32 15 33 16 25 17 26 18 27 19 28 20 29 21 12 22 13 23
REMARK SMILES IDX 23 24 14 25 20 26 15 27 21 28 22 29 16 30 17 31 18 32 19 33
REMARK H PARENT
ROOT
ATOM      1  C   UNL     1      -1.393   3.074   0.000  1.00  0.00     0.029 C 
ATOM      2  C   UNL     1      -0.483   4.265   0.000  1.00  0.00     0.165 C 
ATOM      3  O   UNL     1       0.932   3.768   0.000  1.00  0.00    -0.373 OA
ATOM      4  C   UNL     1       0.896   2.268   0.000  1.00  0.00     0.155 C 
ATOM      5  C   UNL     1      -0.541   1.839   0.000  1.00  0.00     0.066 C 
ENDROOT
BRANCH   1   6
ATOM      6  C   UNL     1      -2.893   3.110   0.000  1.00  0.00     0.042 C 
BRANCH   6   7
ATOM      7  C   UNL     1      -3.674   1.829   0.000  1.00  0.00    -0.044 A 
ATOM      8  C   UNL     1      -5.237  -0.732   0.000  1.00  0.00     0.160 A 
ATOM      9  C   UNL     1      -5.955   0.585   0.000  1.00  0.00     0.051 A 
ATOM     10  C   UNL     1      -3.737  -0.768   0.000  1.00  0.00     0.160 A 
ATOM     11  C   UNL     1      -5.174   1.866   0.000  1.00  0.00     0.008 A 
ATOM     12  C   UNL     1      -2.956   0.513   0.000  1.00  0.00     0.054 A 
BRANCH   8  13
ATOM     13  O   UNL     1      -6.018  -2.012   0.000  1.00  0.00    -0.493 OA
ATOM     14  C   UNL     1      -7.518  -1.976   0.000  1.00  0.00     0.278 C 
ENDBRANCH   8  13
BRANCH  10  15
ATOM     15  O   UNL     1      -3.019  -2.085   0.000  1.00  0.00    -0.493 OA
ATOM     16  C   UNL     1      -3.800  -3.365   0.000  1.00  0.00     0.278 C 
ENDBRANCH  10  15
ENDBRANCH   6   7
ENDBRANCH   1   6
BRANCH   5  17
ATOM     17  C   UNL     1      -1.039   0.424   0.000  1.00  0.00     0.239 C 
BRANCH  17  18
ATOM     18  O   UNL     1      -0.063  -0.715   0.000  1.00  0.00    -0.465 OA
BRANCH  18  19
ATOM     19  C   UNL     1      -0.561  -2.130   0.000  1.00  0.00     0.302 C 
ATOM     20  C   UNL     1       0.416  -3.268   0.000  1.00  0.00     0.139 C 
ATOM     21  O   UNL     1      -2.035  -2.406   0.000  1.00  0.00    -0.253 OA
ENDBRANCH  18  19
ENDBRANCH  17  18
ENDBRANCH   5  17
BRANCH   4  22
ATOM     22  C   UNL     1       2.088   1.357   0.000  1.00  0.00    -0.015 A 
ATOM     23  C   UNL     1       1.895  -0.130   0.000  1.00  0.00     0.010 A 
ATOM     24  C   UNL     1       3.473   1.934   0.000  1.00  0.00     0.057 A 
ATOM     25  C   UNL     1       3.087  -1.041   0.000  1.00  0.00     0.051 A 
ATOM     26  C   UNL     1       4.664   1.023   0.000  1.00  0.00     0.161 A 
ATOM     27  C   UNL     1       4.471  -0.465   0.000  1.00  0.00     0.172 A 
BRANCH  26  28
ATOM     28  O   UNL     1       6.049   1.600   0.000  1.00  0.00    -0.493 OA
ATOM     29  C   UNL     1       6.242   3.087   0.000  1.00  0.00     0.278 C 
ENDBRANCH  26  28
BRANCH  27  30
ATOM     30  O   UNL     1       5.663  -1.375   0.000  1.00  0.00    -0.423 OA
BRANCH  30  31
ATOM     31  C   UNL     1       5.470  -2.863   0.000  1.00  0.00     0.308 C 
ATOM     32  C   UNL     1       6.662  -3.774   0.000  1.00  0.00     0.139 C 
ATOM     33  O   UNL     1       4.086  -3.440   0.000  1.00  0.00    -0.252 OA
ENDBRANCH  30  31
ENDBRANCH  27  30
ENDBRANCH   4  22
TORSDOF 11
