REMARK SMILES COC(=O)[C@H](O)[C@H]1[C@@]2(C)C[C@]3(OC(C)=O)C(C2=O)[C@H](O)[C@@]2(O)C(CC[C@@]4(C)[C@H](c5ccoc5)OC(=O)C[C@@]42O)[C@]13C
REMARK SMILES IDX 7 1 8 2 9 3 10 4 11 5 16 6 17 7 18 8 19 9 21 10 23 11 24 12
REMARK SMILES IDX 25 13 26 14 27 15 28 16 34 17 35 18 36 19 37 20 38 21 40 22
REMARK SMILES IDX 41 23 5 24 3 25 4 26 2 27 1 28 6 29 12 31 13 32 14 33 15 34
REMARK SMILES IDX 22 35 20 37 39 39 29 41 33 42 30 43 32 44 31 45
REMARK H PARENT 6 30 22 36 20 38 39 40
ROOT
ATOM      1  C   UNL     1      -2.498  -1.171   0.000  1.00  0.00     0.053 C 
ATOM      2  C   UNL     1      -3.886  -0.601   0.000  1.00  0.00     0.037 C 
ATOM      3  C   UNL     1      -5.162  -1.388   0.000  1.00  0.00     0.020 C 
ATOM      4  C   UNL     1      -3.772   0.895   0.000  1.00  0.00     0.065 C 
ATOM      5  C   UNL     1      -2.314   1.249   0.000  1.00  0.00     0.131 C 
ATOM      6  C   UNL     1      -1.602   2.569   0.000  1.00  0.00     0.133 C 
ATOM      7  C   UNL     1      -3.027   2.100   0.000  1.00  0.00     0.149 C 
ATOM      8  O   UNL     1      -4.244   2.977   0.000  1.00  0.00    -0.298 OA
ATOM      9  C   UNL     1      -0.103   2.612   0.000  1.00  0.00     0.164 C 
ATOM     10  C   UNL     1       0.684   1.336   0.000  1.00  0.00     0.125 C 
ATOM     11  C   UNL     1      -0.028   0.015   0.000  1.00  0.00     0.037 C 
ATOM     12  C   UNL     1       0.759  -1.261   0.000  1.00  0.00     0.008 C 
ATOM     13  C   UNL     1       2.259  -1.218   0.000  1.00  0.00     0.014 C 
ATOM     14  C   UNL     1       2.971   0.102   0.000  1.00  0.00     0.041 C 
ATOM     15  C   UNL     1       3.758  -1.175   0.000  1.00  0.00     0.019 C 
ATOM     16  C   UNL     1       4.470   0.145   0.000  1.00  0.00     0.219 C 
ATOM     17  O   UNL     1       5.183   1.465   0.000  1.00  0.00    -0.457 OA
ATOM     18  C   UNL     1       4.395   2.742   0.000  1.00  0.00     0.309 C 
ATOM     19  O   UNL     1       5.107   4.062   0.000  1.00  0.00    -0.252 OA
ATOM     20  C   UNL     1       2.896   2.699   0.000  1.00  0.00     0.161 C 
ATOM     21  C   UNL     1       2.184   1.379   0.000  1.00  0.00     0.116 C 
ATOM     22  C   UNL     1      -1.527  -0.028   0.000  1.00  0.00     0.021 C 
ATOM     23  C   UNL     1      -0.878  -1.380   0.000  1.00  0.00     0.016 C 
ENDROOT
BRANCH   1  24
ATOM     24  C   UNL     1      -2.144  -2.629   0.000  1.00  0.00     0.228 C 
BRANCH  24  25
ATOM     25  C   UNL     1      -3.229  -3.664   0.000  1.00  0.00     0.335 C 
ATOM     26  O   UNL     1      -4.669  -3.242   0.000  1.00  0.00    -0.249 OA
BRANCH  25  27
ATOM     27  O   UNL     1      -2.875  -5.122   0.000  1.00  0.00    -0.467 OA
ATOM     28  C   UNL     1      -3.961  -6.157   0.000  1.00  0.00     0.282 C 
ENDBRANCH  25  27
ENDBRANCH  24  25
BRANCH  24  29
ATOM     29  O   UNL     1      -0.705  -3.051   0.000  1.00  0.00    -0.381 OA
ATOM     30  H   UNL     1       0.000   0.000   0.000  1.00  0.00     0.211 HD
ENDBRANCH  24  29
ENDBRANCH   1  24
BRANCH   5  31
ATOM     31  O   UNL     1      -3.231   2.437   0.000  1.00  0.00    -0.458 OA
BRANCH  31  32
ATOM     32  C   UNL     1      -4.717   2.237   0.000  1.00  0.00     0.303 C 
ATOM     33  C   UNL     1      -5.634   3.424   0.000  1.00  0.00     0.139 C 
ATOM     34  O   UNL     1      -5.288   0.849   0.000  1.00  0.00    -0.253 OA
ENDBRANCH  31  32
ENDBRANCH   5  31
BRANCH  10  35
ATOM     35  O   UNL     1      -0.815   1.292   0.000  1.00  0.00    -0.384 OA
ATOM     36  H   UNL     1       0.000   0.000   0.000  1.00  0.00     0.211 HD
ENDBRANCH  10  35
BRANCH   9  37
ATOM     37  O   UNL     1       0.609   3.933   0.000  1.00  0.00    -0.389 OA
ATOM     38  H   UNL     1       0.000   0.000   0.000  1.00  0.00     0.211 HD
ENDBRANCH   9  37
BRANCH  21  39
ATOM     39  O   UNL     1       1.397   2.656   0.000  1.00  0.00    -0.385 OA
ATOM     40  H   UNL     1       0.000   0.000   0.000  1.00  0.00     0.211 HD
ENDBRANCH  21  39
BRANCH  16  41
ATOM     41  C   UNL     1       5.258  -1.132   0.000  1.00  0.00     0.031 A 
ATOM     42  C   UNL     1       6.753  -1.245   0.000  1.00  0.00     0.202 A 
ATOM     43  C   UNL     1       4.687  -2.519   0.000  1.00  0.00     0.049 A 
ATOM     44  O   UNL     1       7.107  -2.703   0.000  1.00  0.00    -0.472 OA
ATOM     45  C   UNL     1       5.830  -3.490   0.000  1.00  0.00     0.195 A 
ENDBRANCH  16  41
TORSDOF 10
