REMARK SMILES C=C[C@@]1(C)CCC2[C@@](C)(C[C@H](OC(C)=O)[C@H]3C(C)(C)CCC[C@]23C)O1
REMARK SMILES IDX 3 1 4 2 5 3 6 4 7 5 8 6 9 7 10 8 11 9 16 10 17 11 18 12
REMARK SMILES IDX 19 13 20 14 21 15 22 16 23 17 24 18 25 19 2 20 1 21 12 22
REMARK SMILES IDX 13 23 14 24 15 25
REMARK H PARENT
ROOT
ATOM      1  C   UNL     1      -3.605  -0.746   0.000  1.00  0.00     0.084 C 
ATOM      2  C   UNL     1      -4.110  -2.159   0.000  1.00  0.00     0.047 C 
ATOM      3  C   UNL     1      -3.614   0.754   0.000  1.00  0.00     0.040 C 
ATOM      4  C   UNL     1      -2.320   1.512   0.000  1.00  0.00     0.010 C 
ATOM      5  C   UNL     1      -1.016   0.769   0.000  1.00  0.00     0.028 C 
ATOM      6  C   UNL     1      -1.007  -0.731   0.000  1.00  0.00     0.073 C 
ATOM      7  C   UNL     1      -0.998  -2.231   0.000  1.00  0.00     0.043 C 
ATOM      8  C   UNL     1       0.296  -1.473   0.000  1.00  0.00     0.081 C 
ATOM      9  C   UNL     1       1.591  -0.716   0.000  1.00  0.00     0.183 C 
ATOM     10  C   UNL     1       1.582   0.784   0.000  1.00  0.00     0.042 C 
ATOM     11  C   UNL     1       2.877   1.542   0.000  1.00  0.00    -0.029 C 
ATOM     12  C   UNL     1       4.352   1.811   0.000  1.00  0.00     0.011 C 
ATOM     13  C   UNL     1       3.398   0.136   0.000  1.00  0.00     0.011 C 
ATOM     14  C   UNL     1       2.868   3.042   0.000  1.00  0.00     0.007 C 
ATOM     15  C   UNL     1       1.564   3.784   0.000  1.00  0.00     0.001 C 
ATOM     16  C   UNL     1       0.270   3.027   0.000  1.00  0.00     0.007 C 
ATOM     17  C   UNL     1       0.278   1.527   0.000  1.00  0.00    -0.020 C 
ATOM     18  C   UNL     1      -1.025   2.269   0.000  1.00  0.00     0.012 C 
ATOM     19  O   UNL     1      -2.302  -1.488   0.000  1.00  0.00    -0.365 OA
ENDROOT
BRANCH   1  20
ATOM     20  C   UNL     1      -5.084  -0.494   0.000  1.00  0.00    -0.000 C 
ATOM     21  C   UNL     1      -5.605   0.912   0.000  1.00  0.00     0.007 C 
ENDBRANCH   1  20
BRANCH   9  22
ATOM     22  O   UNL     1       2.894  -1.458   0.000  1.00  0.00    -0.462 OA
BRANCH  22  23
ATOM     23  C   UNL     1       2.903  -2.958   0.000  1.00  0.00     0.302 C 
ATOM     24  C   UNL     1       4.207  -3.700   0.000  1.00  0.00     0.139 C 
ATOM     25  O   UNL     1       1.609  -3.715   0.000  1.00  0.00    -0.253 OA
ENDBRANCH  22  23
ENDBRANCH   9  22
TORSDOF 3
