REMARK SMILES CCCC=CCC=CCCCCCCCc1cc(O)cc(O)c1
REMARK SMILES IDX 9 1 8 2 7 3 6 4 5 5 4 6 3 7 2 8 1 9 10 10 11 11 12 12 13 13
REMARK SMILES IDX 14 14 15 15 16 16 17 17 23 18 18 19 21 20 20 21 19 22 22 24
REMARK H PARENT 19 23 22 25
ROOT
ATOM      1  C   UNL     1      -2.928  -0.625   0.000  1.00  0.00     0.027 C 
ENDROOT
BRANCH   1   2
ATOM      2  C   UNL     1      -4.175   0.208   0.000  1.00  0.00    -0.031 C 
BRANCH   2   3
ATOM      3  C   UNL     1      -5.520  -0.456   0.000  1.00  0.00    -0.027 C 
BRANCH   3   4
ATOM      4  C   UNL     1      -6.767   0.377   0.000  1.00  0.00     0.054 C 
BRANCH   4   5
ATOM      5  C   UNL     1      -8.113  -0.286   0.000  1.00  0.00    -0.027 C 
BRANCH   5   6
ATOM      6  C   UNL     1      -9.360   0.547   0.000  1.00  0.00    -0.031 C 
BRANCH   6   7
ATOM      7  C   UNL     1     -10.705  -0.117   0.000  1.00  0.00     0.027 C 
BRANCH   7   8
ATOM      8  C   UNL     1     -11.953   0.717   0.000  1.00  0.00     0.001 C 
ATOM      9  C   UNL     1     -13.298   0.053   0.000  1.00  0.00     0.004 C 
ENDBRANCH   7   8
ENDBRANCH   6   7
ENDBRANCH   5   6
ENDBRANCH   4   5
ENDBRANCH   3   4
ENDBRANCH   2   3
ENDBRANCH   1   2
BRANCH   1  10
ATOM     10  C   UNL     1      -1.582   0.038   0.000  1.00  0.00     0.004 C 
BRANCH  10  11
ATOM     11  C   UNL     1      -0.335  -0.795   0.000  1.00  0.00     0.000 C 
BRANCH  11  12
ATOM     12  C   UNL     1       1.010  -0.132   0.000  1.00  0.00     0.000 C 
BRANCH  12  13
ATOM     13  C   UNL     1       2.257  -0.965   0.000  1.00  0.00     0.000 C 
BRANCH  13  14
ATOM     14  C   UNL     1       3.603  -0.301   0.000  1.00  0.00     0.005 C 
BRANCH  14  15
ATOM     15  C   UNL     1       4.850  -1.134   0.000  1.00  0.00     0.036 C 
BRANCH  15  16
ATOM     16  C   UNL     1       6.195  -0.471   0.000  1.00  0.00    -0.041 A 
ATOM     17  C   UNL     1       6.293   1.026   0.000  1.00  0.00     0.050 A 
ATOM     18  C   UNL     1       7.443  -1.304   0.000  1.00  0.00     0.050 A 
ATOM     19  C   UNL     1       7.638   1.690   0.000  1.00  0.00     0.119 A 
ATOM     20  C   UNL     1       8.788  -0.640   0.000  1.00  0.00     0.119 A 
ATOM     21  C   UNL     1       8.886   0.857   0.000  1.00  0.00     0.092 A 
BRANCH  19  22
ATOM     22  O   UNL     1       7.736   3.187   0.000  1.00  0.00    -0.508 OA
ATOM     23  H   UNL     1       0.000   0.000   0.000  1.00  0.00     0.293 HD
ENDBRANCH  19  22
BRANCH  20  24
ATOM     24  O   UNL     1      10.035  -1.474   0.000  1.00  0.00    -0.508 OA
ATOM     25  H   UNL     1       0.000   0.000   0.000  1.00  0.00     0.293 HD
ENDBRANCH  20  24
ENDBRANCH  15  16
ENDBRANCH  14  15
ENDBRANCH  13  14
ENDBRANCH  12  13
ENDBRANCH  11  12
ENDBRANCH  10  11
ENDBRANCH   1  10
TORSDOF 16
