REMARK SMILES Cn1c2c(O)cccc2c(=O)c2c(O)cc3c(c21)C=CC(C)(C)O3
REMARK SMILES IDX 1 1 2 2 3 3 4 4 6 5 7 6 8 7 9 8 10 9 11 10 12 11 13 12 15 13
REMARK SMILES IDX 16 14 24 15 21 16 22 17 23 18 20 19 19 20 17 21 18 22 5 23
REMARK SMILES IDX 14 25
REMARK H PARENT 5 24 14 26
ROOT
ATOM      1  C   UNL     1       0.393  -2.514   0.000  1.00  0.00     0.150 C 
ATOM      2  N   UNL     1       0.900  -1.103   0.000  1.00  0.00    -0.340 N 
ATOM      3  C   UNL     1       2.376  -0.836   0.000  1.00  0.00     0.095 A 
ATOM      4  C   UNL     1       3.345  -1.981   0.000  1.00  0.00     0.139 A 
ATOM      5  C   UNL     1       4.821  -1.714   0.000  1.00  0.00     0.048 A 
ATOM      6  C   UNL     1       5.328  -0.302   0.000  1.00  0.00     0.005 A 
ATOM      7  C   UNL     1       4.359   0.843   0.000  1.00  0.00     0.014 A 
ATOM      8  C   UNL     1       2.883   0.576   0.000  1.00  0.00     0.050 A 
ATOM      9  C   UNL     1       1.914   1.721   0.000  1.00  0.00     0.201 A 
ATOM     10  O   UNL     1       2.421   3.133   0.000  1.00  0.00    -0.288 OA
ATOM     11  C   UNL     1       0.438   1.454   0.000  1.00  0.00     0.089 A 
ATOM     12  C   UNL     1      -0.531   2.599   0.000  1.00  0.00     0.132 A 
ATOM     13  C   UNL     1      -2.007   2.332   0.000  1.00  0.00     0.094 A 
ATOM     14  C   UNL     1      -2.514   0.921   0.000  1.00  0.00     0.133 A 
ATOM     15  O   UNL     1      -3.990   0.654   0.000  1.00  0.00    -0.483 OA
ATOM     16  C   UNL     1      -4.497  -0.758   0.000  1.00  0.00     0.122 C 
ATOM     17  C   UNL     1      -5.457  -1.911   0.000  1.00  0.00     0.061 C 
ATOM     18  C   UNL     1      -5.800  -0.013   0.000  1.00  0.00     0.061 C 
ATOM     19  C   UNL     1      -3.528  -1.903   0.000  1.00  0.00     0.021 C 
ATOM     20  C   UNL     1      -2.052  -1.636   0.000  1.00  0.00     0.014 C 
ATOM     21  C   UNL     1      -1.545  -0.224   0.000  1.00  0.00     0.041 A 
ATOM     22  C   UNL     1      -0.069   0.043   0.000  1.00  0.00     0.067 A 
ENDROOT
BRANCH   4  23
ATOM     23  O   UNL     1       2.838  -3.392   0.000  1.00  0.00    -0.506 OA
ATOM     24  H   UNL     1       0.000   0.000   0.000  1.00  0.00     0.293 HD
ENDBRANCH   4  23
BRANCH  12  25
ATOM     25  O   UNL     1      -0.024   4.011   0.000  1.00  0.00    -0.507 OA
ATOM     26  H   UNL     1       0.000   0.000   0.000  1.00  0.00     0.293 HD
ENDBRANCH  12  25
TORSDOF 2
