REMARK SMILES COc1c(CCCCCCCCCCCC(C)=O)[nH]c2ccccc2c1=O
REMARK SMILES IDX 9 1 8 2 7 3 6 4 5 5 4 6 3 7 26 8 19 9 25 10 20 11 24 12
REMARK SMILES IDX 21 13 23 14 22 15 27 16 2 18 1 19 10 20 11 21 12 22 13 23
REMARK SMILES IDX 14 24 15 25 16 26 17 27 18 28
REMARK H PARENT 19 17
ROOT
ATOM      1  C   UNL     1      -2.542  -1.059   0.000  1.00  0.00     0.000 C 
ENDROOT
BRANCH   1   2
ATOM      2  C   UNL     1      -1.190  -0.410   0.000  1.00  0.00     0.000 C 
BRANCH   2   3
ATOM      3  C   UNL     1       0.049  -1.257   0.000  1.00  0.00     0.000 C 
BRANCH   3   4
ATOM      4  C   UNL     1       1.401  -0.609   0.000  1.00  0.00     0.006 C 
BRANCH   4   5
ATOM      5  C   UNL     1       2.639  -1.456   0.000  1.00  0.00     0.058 C 
BRANCH   5   6
ATOM      6  C   UNL     1       3.991  -0.807   0.000  1.00  0.00     0.062 A 
ATOM      7  C   UNL     1       4.106   0.689   0.000  1.00  0.00     0.186 A 
ATOM      8  C   UNL     1       5.458   1.337   0.000  1.00  0.00     0.231 A 
ATOM      9  N   UNL     1       5.229  -1.654   0.000  1.00  0.00    -0.355 N 
ATOM     10  C   UNL     1       6.697   0.490   0.000  1.00  0.00     0.049 A 
ATOM     11  C   UNL     1       6.582  -1.005   0.000  1.00  0.00     0.050 A 
ATOM     12  C   UNL     1       8.049   1.139   0.000  1.00  0.00     0.014 A 
ATOM     13  C   UNL     1       7.820  -1.852   0.000  1.00  0.00     0.027 A 
ATOM     14  C   UNL     1       9.287   0.292   0.000  1.00  0.00     0.001 A 
ATOM     15  C   UNL     1       9.172  -1.204   0.000  1.00  0.00     0.002 A 
ATOM     16  O   UNL     1       5.573   2.833   0.000  1.00  0.00    -0.285 OA
ATOM     17  H   UNL     1       0.000   0.000   0.000  1.00  0.00     0.166 HD
BRANCH   7  18
ATOM     18  O   UNL     1       2.868   1.536   0.000  1.00  0.00    -0.491 OA
ATOM     19  C   UNL     1       2.982   3.031   0.000  1.00  0.00     0.278 C 
ENDBRANCH   7  18
ENDBRANCH   5   6
ENDBRANCH   4   5
ENDBRANCH   3   4
ENDBRANCH   2   3
ENDBRANCH   1   2
BRANCH   1  20
ATOM     20  C   UNL     1      -3.780  -0.212   0.000  1.00  0.00     0.000 C 
BRANCH  20  21
ATOM     21  C   UNL     1      -5.133  -0.861   0.000  1.00  0.00     0.000 C 
BRANCH  21  22
ATOM     22  C   UNL     1      -6.370  -0.014   0.000  1.00  0.00     0.000 C 
BRANCH  22  23
ATOM     23  C   UNL     1      -7.723  -0.662   0.000  1.00  0.00     0.000 C 
BRANCH  23  24
ATOM     24  C   UNL     1      -8.961   0.185   0.000  1.00  0.00     0.008 C 
BRANCH  24  25
ATOM     25  C   UNL     1     -10.313  -0.464   0.000  1.00  0.00     0.075 C 
BRANCH  25  26
ATOM     26  C   UNL     1     -11.552   0.383   0.000  1.00  0.00     0.129 C 
ATOM     27  C   UNL     1     -12.904  -0.266   0.000  1.00  0.00     0.087 C 
ATOM     28  O   UNL     1     -11.437   1.879   0.000  1.00  0.00    -0.300 OA
ENDBRANCH  25  26
ENDBRANCH  24  25
ENDBRANCH  23  24
ENDBRANCH  22  23
ENDBRANCH  21  22
ENDBRANCH  20  21
ENDBRANCH   1  20
TORSDOF 13
