REMARK SMILES COC(=O)[C@@H](O)[C@H]1[C@@]2(C)C[C@]3(OC(C)=O)[C@@H]4[C@@](OC)(O[C@]56CC(=O)O[C@@H](c7ccoc7)[C@]5(C)CCC([C@]13C)[C@]46O)[C@H]2O
REMARK SMILES IDX 7 1 8 2 9 3 10 4 11 5 16 6 17 7 20 8 21 9 22 10 23 11 24 12
REMARK SMILES IDX 25 13 26 14 32 15 33 16 34 17 35 18 36 19 37 20 38 21 39 22
REMARK SMILES IDX 41 23 5 24 3 25 4 26 2 27 1 28 6 29 42 31 12 33 13 34 14 35
REMARK SMILES IDX 15 36 18 37 19 38 40 39 27 41 31 42 28 43 30 44 29 45
REMARK H PARENT 6 30 42 32 40 40
ROOT
ATOM      1  C   UNL     1      -2.373  -0.638   0.000  1.00  0.00     0.048 C 
ATOM      2  C   UNL     1      -3.564  -1.550   0.000  1.00  0.00     0.009 C 
ATOM      3  C   UNL     1      -4.613  -2.622   0.000  1.00  0.00     0.015 C 
ATOM      4  C   UNL     1      -3.967  -0.105   0.000  1.00  0.00     0.060 C 
ATOM      5  C   UNL     1      -2.918   0.967   0.000  1.00  0.00     0.130 C 
ATOM      6  C   UNL     1      -1.465   0.594   0.000  1.00  0.00     0.131 C 
ATOM      7  C   UNL     1      -1.062  -0.851   0.000  1.00  0.00     0.205 C 
ATOM      8  O   UNL     1       0.437  -0.913   0.000  1.00  0.00    -0.336 OA
ATOM      9  C   UNL     1       0.960   0.492   0.000  1.00  0.00     0.121 C 
ATOM     10  C   UNL     1       0.741  -0.991   0.000  1.00  0.00     0.162 C 
ATOM     11  C   UNL     1       1.916  -1.923   0.000  1.00  0.00     0.309 C 
ATOM     12  O   UNL     1       1.697  -3.407   0.000  1.00  0.00    -0.252 OA
ATOM     13  O   UNL     1       3.311  -1.371   0.000  1.00  0.00    -0.457 OA
ATOM     14  C   UNL     1       3.530   0.113   0.000  1.00  0.00     0.219 C 
ATOM     15  C   UNL     1       2.354   1.045   0.000  1.00  0.00     0.042 C 
ATOM     16  C   UNL     1       3.749   1.597   0.000  1.00  0.00     0.019 C 
ATOM     17  C   UNL     1       2.573   2.529   0.000  1.00  0.00     0.014 C 
ATOM     18  C   UNL     1       1.398   3.460   0.000  1.00  0.00     0.008 C 
ATOM     19  C   UNL     1       0.003   2.908   0.000  1.00  0.00     0.035 C 
ATOM     20  C   UNL     1      -2.395   2.373   0.000  1.00  0.00     0.020 C 
ATOM     21  C   UNL     1      -3.226   3.622   0.000  1.00  0.00     0.016 C 
ATOM     22  C   UNL     1      -0.216   1.424   0.000  1.00  0.00     0.110 C 
ATOM     23  C   UNL     1      -2.111  -1.923   0.000  1.00  0.00     0.181 C 
ENDROOT
BRANCH   1  24
ATOM     24  C   UNL     1      -0.935  -1.067   0.000  1.00  0.00     0.228 C 
BRANCH  24  25
ATOM     25  C   UNL     1      -0.587  -2.526   0.000  1.00  0.00     0.335 C 
ATOM     26  O   UNL     1      -1.395  -3.790   0.000  1.00  0.00    -0.249 OA
BRANCH  25  27
ATOM     27  O   UNL     1       0.850  -2.954   0.000  1.00  0.00    -0.467 OA
ATOM     28  C   UNL     1       1.198  -4.413   0.000  1.00  0.00     0.282 C 
ENDBRANCH  25  27
ENDBRANCH  24  25
BRANCH  24  29
ATOM     29  O   UNL     1       0.155  -0.036   0.000  1.00  0.00    -0.381 OA
ATOM     30  H   UNL     1       0.000   0.000   0.000  1.00  0.00     0.211 HD
ENDBRANCH  24  29
ENDBRANCH   1  24
BRANCH  23  31
ATOM     31  O   UNL     1      -2.069  -3.422   0.000  1.00  0.00    -0.387 OA
ATOM     32  H   UNL     1       0.000   0.000   0.000  1.00  0.00     0.211 HD
ENDBRANCH  23  31
BRANCH   5  33
ATOM     33  O   UNL     1      -3.322   2.412   0.000  1.00  0.00    -0.458 OA
BRANCH  33  34
ATOM     34  C   UNL     1      -4.774   2.784   0.000  1.00  0.00     0.303 C 
ATOM     35  C   UNL     1      -5.178   4.229   0.000  1.00  0.00     0.139 C 
ATOM     36  O   UNL     1      -5.824   1.713   0.000  1.00  0.00    -0.253 OA
ENDBRANCH  33  34
ENDBRANCH   5  33
BRANCH   7  37
ATOM     37  O   UNL     1      -0.509  -2.245   0.000  1.00  0.00    -0.350 OA
ATOM     38  C   UNL     1      -1.441  -3.421   0.000  1.00  0.00     0.198 C 
ENDBRANCH   7  37
BRANCH  22  39
ATOM     39  O   UNL     1      -1.482   2.228   0.000  1.00  0.00    -0.386 OA
ATOM     40  H   UNL     1       0.000   0.000   0.000  1.00  0.00     0.211 HD
ENDBRANCH  22  39
BRANCH  14  41
ATOM     41  C   UNL     1       4.925   0.665   0.000  1.00  0.00     0.031 A 
ATOM     42  C   UNL     1       5.298   2.118   0.000  1.00  0.00     0.202 A 
ATOM     43  C   UNL     1       6.191  -0.138   0.000  1.00  0.00     0.049 A 
ATOM     44  O   UNL     1       6.795   2.213   0.000  1.00  0.00    -0.472 OA
ATOM     45  C   UNL     1       7.347   0.818   0.000  1.00  0.00     0.195 A 
ENDBRANCH  14  41
TORSDOF 10
