REMARK SMILES O=C(C1=Cc2cc(O)c(O)cc2CO1)c1ccc(O)cc1O
REMARK SMILES IDX 1 1 2 2 3 3 4 4 14 5 5 6 13 7 6 8 12 9 7 10 11 11 9 12 8 13
REMARK SMILES IDX 10 15 15 17 16 18 21 19 17 20 20 21 18 22 22 23 19 25
REMARK H PARENT 8 14 10 16 22 24 19 26
ROOT
ATOM      1  O   UNL     1      -1.494  -2.686   0.000  1.00  0.00    -0.285 OA
ATOM      2  C   UNL     1      -1.451  -1.187   0.000  1.00  0.00     0.231 C 
ENDROOT
BRANCH   2   3
ATOM      3  C   UNL     1      -0.132  -0.474   0.000  1.00  0.00     0.168 C 
ATOM      4  C   UNL     1       1.146  -1.260   0.000  1.00  0.00     0.059 C 
ATOM      5  O   UNL     1      -0.089   1.026   0.000  1.00  0.00    -0.485 OA
ATOM      6  C   UNL     1       2.465  -0.547   0.000  1.00  0.00    -0.011 A 
ATOM      7  C   UNL     1       1.231   1.738   0.000  1.00  0.00     0.266 C 
ATOM      8  C   UNL     1       3.743  -1.334   0.000  1.00  0.00     0.058 A 
ATOM      9  C   UNL     1       2.508   0.952   0.000  1.00  0.00     0.001 A 
ATOM     10  C   UNL     1       5.062  -0.621   0.000  1.00  0.00     0.158 A 
ATOM     11  C   UNL     1       3.828   1.665   0.000  1.00  0.00     0.058 A 
ATOM     12  C   UNL     1       5.105   0.878   0.000  1.00  0.00     0.157 A 
BRANCH  10  13
ATOM     13  O   UNL     1       6.340  -1.408   0.000  1.00  0.00    -0.504 OA
ATOM     14  H   UNL     1       0.000   0.000   0.000  1.00  0.00     0.293 HD
ENDBRANCH  10  13
BRANCH  12  15
ATOM     15  O   UNL     1       6.425   1.591   0.000  1.00  0.00    -0.504 OA
ATOM     16  H   UNL     1       0.000   0.000   0.000  1.00  0.00     0.293 HD
ENDBRANCH  12  15
ENDBRANCH   2   3
BRANCH   2  17
ATOM     17  C   UNL     1      -2.729  -0.400   0.000  1.00  0.00     0.068 A 
ATOM     18  C   UNL     1      -2.686   1.099   0.000  1.00  0.00     0.020 A 
ATOM     19  C   UNL     1      -4.048  -1.113   0.000  1.00  0.00     0.130 A 
ATOM     20  C   UNL     1      -3.963   1.886   0.000  1.00  0.00     0.047 A 
ATOM     21  C   UNL     1      -5.326  -0.326   0.000  1.00  0.00     0.093 A 
ATOM     22  C   UNL     1      -5.283   1.173   0.000  1.00  0.00     0.119 A 
BRANCH  19  23
ATOM     23  O   UNL     1      -4.091  -2.612   0.000  1.00  0.00    -0.507 OA
ATOM     24  H   UNL     1       0.000   0.000   0.000  1.00  0.00     0.293 HD
ENDBRANCH  19  23
BRANCH  22  25
ATOM     25  O   UNL     1      -6.560   1.960   0.000  1.00  0.00    -0.508 OA
ATOM     26  H   UNL     1       0.000   0.000   0.000  1.00  0.00     0.293 HD
ENDBRANCH  22  25
ENDBRANCH   2  17
TORSDOF 6
