REMARK SMILES COc1cc(OC)c(C=CC=O)c(OC)c1
REMARK SMILES IDX 9 1 8 2 3 3 4 4 16 5 5 6 13 7 2 8 1 9 6 10 7 11 14 12 15 13
REMARK SMILES IDX 10 14 11 15 12 16
REMARK H PARENT
ROOT
ATOM      1  C   UNL     1       1.710   1.095   0.000  1.00  0.00     0.019 C 
ENDROOT
BRANCH   1   2
ATOM      2  C   UNL     1       0.359   0.443   0.000  1.00  0.00     0.059 A 
ATOM      3  C   UNL     1      -2.344  -0.860   0.000  1.00  0.00     0.126 A 
ATOM      4  C   UNL     1      -2.232   0.636   0.000  1.00  0.00     0.093 A 
ATOM      5  C   UNL     1      -1.104  -1.704   0.000  1.00  0.00     0.093 A 
ATOM      6  C   UNL     1      -0.881   1.288   0.000  1.00  0.00     0.133 A 
ATOM      7  C   UNL     1       0.247  -1.052   0.000  1.00  0.00     0.133 A 
BRANCH   3   8
ATOM      8  O   UNL     1      -3.695  -1.511   0.000  1.00  0.00    -0.496 OA
ATOM      9  C   UNL     1      -4.934  -0.667   0.000  1.00  0.00     0.278 C 
ENDBRANCH   3   8
BRANCH   6  10
ATOM     10  O   UNL     1      -0.770   2.784   0.000  1.00  0.00    -0.496 OA
ATOM     11  C   UNL     1      -2.010   3.628   0.000  1.00  0.00     0.278 C 
ENDBRANCH   6  10
BRANCH   7  12
ATOM     12  O   UNL     1       1.487  -1.897   0.000  1.00  0.00    -0.496 OA
ATOM     13  C   UNL     1       1.376  -3.393   0.000  1.00  0.00     0.278 C 
ENDBRANCH   7  12
ENDBRANCH   1   2
BRANCH   1  14
ATOM     14  C   UNL     1       2.950   0.251   0.000  1.00  0.00     0.044 C 
BRANCH  14  15
ATOM     15  C   UNL     1       4.301   0.902   0.000  1.00  0.00     0.252 C 
ATOM     16  O   UNL     1       5.540   0.058   0.000  1.00  0.00    -0.299 OA
ENDBRANCH  14  15
ENDBRANCH   1  14
TORSDOF 6
