REMARK SMILES CC=C1CN2C3Cc4c(n(C)c5ccccc45)[C@@H]2CC1[C@H]3CO
REMARK SMILES IDX 3 1 4 2 5 3 18 4 19 5 20 6 21 7 6 8 7 9 8 10 9 11 10 12
REMARK SMILES IDX 11 13 12 14 13 15 14 16 15 17 16 18 17 19 2 20 1 21 22 22
REMARK SMILES IDX 23 23
REMARK H PARENT 23 24
ROOT
ATOM      1  C   UNL     1      -3.647  -0.632   0.000  1.00  0.00    -0.057 C 
ATOM      2  C   UNL     1      -2.954   0.698   0.000  1.00  0.00     0.116 C 
ATOM      3  N   UNL     1      -1.455   0.762   0.000  1.00  0.00    -0.287 NA
ATOM      4  C   UNL     1      -0.650  -0.503   0.000  1.00  0.00     0.105 C 
ATOM      5  C   UNL     1      -1.343  -1.833   0.000  1.00  0.00     0.034 C 
ATOM      6  C   UNL     1      -2.842  -1.898   0.000  1.00  0.00     0.025 C 
ATOM      7  C   UNL     1      -1.766  -0.088   0.000  1.00  0.00     0.039 C 
ATOM      8  C   UNL     1      -0.762   2.092   0.000  1.00  0.00     0.068 C 
ATOM      9  C   UNL     1       0.737   2.157   0.000  1.00  0.00     0.057 C 
ATOM     10  C   UNL     1       1.542   0.891   0.000  1.00  0.00    -0.016 A 
ATOM     11  C   UNL     1       0.849  -0.439   0.000  1.00  0.00     0.039 A 
ATOM     12  N   UNL     1       1.900  -1.509   0.000  1.00  0.00    -0.346 N 
ATOM     13  C   UNL     1       1.651  -2.988   0.000  1.00  0.00     0.150 C 
ATOM     14  C   UNL     1       3.243  -0.841   0.000  1.00  0.00     0.048 A 
ATOM     15  C   UNL     1       4.638  -1.391   0.000  1.00  0.00     0.027 A 
ATOM     16  C   UNL     1       5.812  -0.458   0.000  1.00  0.00     0.002 A 
ATOM     17  C   UNL     1       5.591   1.026   0.000  1.00  0.00     0.001 A 
ATOM     18  C   UNL     1       4.196   1.576   0.000  1.00  0.00     0.010 A 
ATOM     19  C   UNL     1       3.022   0.643   0.000  1.00  0.00     0.003 A 
ENDROOT
BRANCH   1  20
ATOM     20  C   UNL     1      -5.146  -0.697   0.000  1.00  0.00    -0.030 C 
ATOM     21  C   UNL     1      -5.839  -2.027   0.000  1.00  0.00     0.035 C 
ENDBRANCH   1  20
BRANCH   7  22
ATOM     22  C   UNL     1      -3.357   1.980   0.000  1.00  0.00     0.161 C 
BRANCH  22  23
ATOM     23  O   UNL     1      -3.422   3.479   0.000  1.00  0.00    -0.396 OA
ATOM     24  H   UNL     1       0.000   0.000   0.000  1.00  0.00     0.210 HD
ENDBRANCH  22  23
ENDBRANCH   7  22
TORSDOF 3
