REMARK SMILES COC(=O)C[C@H]1[C@]2(C)C3=C(C)[C@H](c4ccoc4)CC3O[C@@H]2[C@H](OC(C)=O)C2[C@]1(C)C(=O)C=C[C@@]2(C)O
REMARK SMILES IDX 6 1 7 2 8 3 9 4 10 5 11 6 12 7 18 8 19 9 20 10 21 11 22 12
REMARK SMILES IDX 27 13 28 14 29 15 30 16 31 17 32 18 33 19 34 20 35 21 5 22
REMARK SMILES IDX 3 23 4 24 2 25 1 26 23 27 24 28 25 29 26 30 36 31 13 33
REMARK SMILES IDX 17 34 14 35 16 36 15 37
REMARK H PARENT 36 32
ROOT
ATOM      1  C   UNL     1       0.734  -1.120   0.000  1.00  0.00     0.027 C 
ATOM      2  C   UNL     1       0.062   0.221   0.000  1.00  0.00     0.025 C 
ATOM      3  C   UNL     1      -0.890  -0.938   0.000  1.00  0.00     0.019 C 
ATOM      4  C   UNL     1      -1.384   0.619   0.000  1.00  0.00    -0.033 C 
ATOM      5  C   UNL     1      -2.788   0.091   0.000  1.00  0.00    -0.063 C 
ATOM      6  C   UNL     1      -3.186  -1.355   0.000  1.00  0.00     0.040 C 
ATOM      7  C   UNL     1      -3.724   1.263   0.000  1.00  0.00     0.051 C 
ATOM      8  C   UNL     1      -2.899   2.515   0.000  1.00  0.00     0.049 C 
ATOM      9  C   UNL     1      -1.453   2.118   0.000  1.00  0.00     0.146 C 
ATOM     10  O   UNL     1      -0.049   2.646   0.000  1.00  0.00    -0.366 OA
ATOM     11  C   UNL     1       0.887   1.474   0.000  1.00  0.00     0.170 C 
ATOM     12  C   UNL     1       2.385   1.385   0.000  1.00  0.00     0.213 C 
ATOM     13  C   UNL     1       3.057   0.044   0.000  1.00  0.00     0.082 C 
ATOM     14  C   UNL     1       2.231  -1.208   0.000  1.00  0.00     0.044 C 
ATOM     15  C   UNL     1       1.406  -2.461   0.000  1.00  0.00     0.021 C 
ATOM     16  C   UNL     1       2.904  -2.549   0.000  1.00  0.00     0.162 C 
ATOM     17  O   UNL     1       2.078  -3.802   0.000  1.00  0.00    -0.294 OA
ATOM     18  C   UNL     1       4.401  -2.638   0.000  1.00  0.00     0.046 C 
ATOM     19  C   UNL     1       5.226  -1.385   0.000  1.00  0.00     0.011 C 
ATOM     20  C   UNL     1       4.554  -0.044   0.000  1.00  0.00     0.088 C 
ATOM     21  C   UNL     1       4.381   1.446   0.000  1.00  0.00     0.047 C 
ENDROOT
BRANCH   1  22
ATOM     22  C   UNL     1      -0.091  -2.372   0.000  1.00  0.00     0.128 C 
BRANCH  22  23
ATOM     23  C   UNL     1      -1.589  -2.284   0.000  1.00  0.00     0.305 C 
ATOM     24  O   UNL     1      -2.261  -0.943   0.000  1.00  0.00    -0.252 OA
BRANCH  23  25
ATOM     25  O   UNL     1      -2.414  -3.536   0.000  1.00  0.00    -0.469 OA
ATOM     26  C   UNL     1      -3.911  -3.448   0.000  1.00  0.00     0.282 C 
ENDBRANCH  23  25
ENDBRANCH  22  23
ENDBRANCH   1  22
BRANCH  12  27
ATOM     27  O   UNL     1       3.210   2.638   0.000  1.00  0.00    -0.459 OA
BRANCH  27  28
ATOM     28  C   UNL     1       4.707   2.549   0.000  1.00  0.00     0.303 C 
ATOM     29  C   UNL     1       5.533   3.802   0.000  1.00  0.00     0.139 C 
ATOM     30  O   UNL     1       5.380   1.208   0.000  1.00  0.00    -0.253 OA
ENDBRANCH  27  28
ENDBRANCH  12  27
BRANCH  20  31
ATOM     31  O   UNL     1       5.992   0.385   0.000  1.00  0.00    -0.386 OA
ATOM     32  H   UNL     1       0.000   0.000   0.000  1.00  0.00     0.211 HD
ENDBRANCH  20  31
BRANCH   7  33
ATOM     33  C   UNL     1      -5.223   1.194   0.000  1.00  0.00    -0.002 A 
ATOM     34  C   UNL     1      -6.048  -0.058   0.000  1.00  0.00     0.199 A 
ATOM     35  C   UNL     1      -6.159   2.366   0.000  1.00  0.00     0.046 A 
ATOM     36  O   UNL     1      -7.494   0.340   0.000  1.00  0.00    -0.472 OA
ATOM     37  C   UNL     1      -7.563   1.838   0.000  1.00  0.00     0.195 A 
ENDBRANCH   7  33
TORSDOF 7
