REMARK SMILES C=C(CC[C@@H](C)[C@H]1CC[C@@]2(C)[C@@H]3CC[C@H]4C(C)(C)C(=O)CC[C@@]45C[C@@]35CC[C@]12C)C(C)CO
REMARK SMILES IDX 1 1 2 2 3 3 4 4 5 5 6 6 7 7 8 8 28 9 9 10 27 11 10 12 26 13
REMARK SMILES IDX 12 14 25 15 13 16 24 17 23 18 14 19 22 20 15 21 21 22 16 23
REMARK SMILES IDX 19 24 29 25 11 26 17 27 18 28 20 29 30 30 31 31 32 32 33 33
REMARK H PARENT 33 34
ROOT
ATOM      1  C   UNL     1      -7.428  -1.905   0.000  1.00  0.00     0.008 C 
ATOM      2  C   UNL     1      -5.987  -1.489   0.000  1.00  0.00    -0.072 C 
ENDROOT
BRANCH   2   3
ATOM      3  C   UNL     1      -5.628  -0.033   0.000  1.00  0.00     0.031 C 
BRANCH   3   4
ATOM      4  C   UNL     1      -4.186   0.384   0.000  1.00  0.00     0.008 C 
BRANCH   4   5
ATOM      5  C   UNL     1      -3.827   1.840   0.000  1.00  0.00    -0.010 C 
ATOM      6  C   UNL     1      -4.908   2.880   0.000  1.00  0.00     0.008 C 
BRANCH   5   7
ATOM      7  C   UNL     1      -2.386   2.256   0.000  1.00  0.00    -0.002 C 
ATOM      8  C   UNL     1      -1.875   3.667   0.000  1.00  0.00     0.005 C 
ATOM      9  C   UNL     1      -1.202   1.335   0.000  1.00  0.00    -0.024 C 
ATOM     10  C   UNL     1      -0.376   3.618   0.000  1.00  0.00     0.008 C 
ATOM     11  C   UNL     1      -1.094  -0.161   0.000  1.00  0.00     0.008 C 
ATOM     12  C   UNL     1       0.040   2.176   0.000  1.00  0.00    -0.024 C 
ATOM     13  C   UNL     1       0.256  -0.816   0.000  1.00  0.00     0.008 C 
ATOM     14  C   UNL     1       1.390   1.522   0.000  1.00  0.00     0.002 C 
ATOM     15  C   UNL     1       1.498   0.026   0.000  1.00  0.00    -0.020 C 
ATOM     16  C   UNL     1       2.632   2.363   0.000  1.00  0.00     0.005 C 
ATOM     17  C   UNL     1       1.605  -1.470   0.000  1.00  0.00     0.016 C 
ATOM     18  C   UNL     1       2.847  -0.629   0.000  1.00  0.00    -0.019 C 
ATOM     19  C   UNL     1       3.981   1.708   0.000  1.00  0.00     0.005 C 
ATOM     20  C   UNL     1       2.955  -2.125   0.000  1.00  0.00     0.016 C 
ATOM     21  C   UNL     1       4.089   0.212   0.000  1.00  0.00     0.009 C 
ATOM     22  C   UNL     1       4.304  -2.780   0.000  1.00  0.00     0.077 C 
ATOM     23  C   UNL     1       5.438  -0.443   0.000  1.00  0.00     0.027 C 
ATOM     24  C   UNL     1       5.546  -1.939   0.000  1.00  0.00     0.138 C 
ATOM     25  C   UNL     1      -2.525   0.628   0.000  1.00  0.00     0.012 C 
ATOM     26  C   UNL     1       1.187   3.143   0.000  1.00  0.00     0.012 C 
ATOM     27  C   UNL     1       6.931  -0.596   0.000  1.00  0.00     0.020 C 
ATOM     28  C   UNL     1       5.849   1.000   0.000  1.00  0.00     0.020 C 
ATOM     29  O   UNL     1       6.896  -2.593   0.000  1.00  0.00    -0.299 OA
ENDBRANCH   5   7
ENDBRANCH   4   5
ENDBRANCH   3   4
ENDBRANCH   2   3
BRANCH   2  30
ATOM     30  C   UNL     1      -4.906  -2.529   0.000  1.00  0.00     0.037 C 
ATOM     31  C   UNL     1      -5.266  -3.985   0.000  1.00  0.00     0.015 C 
BRANCH  30  32
ATOM     32  C   UNL     1      -3.465  -2.112   0.000  1.00  0.00     0.163 C 
BRANCH  32  33
ATOM     33  O   UNL     1      -2.384  -3.152   0.000  1.00  0.00    -0.396 OA
ATOM     34  H   UNL     1       0.000   0.000   0.000  1.00  0.00     0.210 HD
ENDBRANCH  32  33
ENDBRANCH  30  32
ENDBRANCH   2  30
TORSDOF 7
