REMARK SMILES [2H]C1([2H])C(=O)[C@@]2(O)C[C@@](C)(C=C)CCC2[C@@]2(C)CCCC(C)(C)[C@H]12
REMARK SMILES IDX 2 1 4 2 5 3 6 4 8 5 9 6 10 7 13 8 14 9 15 10 16 11 17 12
REMARK SMILES IDX 18 13 19 14 20 15 21 16 22 17 23 18 24 19 7 20 11 22 12 23
REMARK H PARENT 7 21
ROOT
ATOM      1  C   UNL     1      -1.237  -1.455   0.000  1.00  0.00     0.083 C 
ATOM      2  C   UNL     1       0.256  -1.596   0.000  1.00  0.00     0.164 C 
ATOM      3  O   UNL     1       0.881  -2.960   0.000  1.00  0.00    -0.296 OA
ATOM      4  C   UNL     1       1.125  -0.373   0.000  1.00  0.00     0.127 C 
ATOM      5  C   UNL     1       2.618  -0.514   0.000  1.00  0.00     0.054 C 
ATOM      6  C   UNL     1       3.487   0.709   0.000  1.00  0.00    -0.012 C 
ATOM      7  C   UNL     1       4.722   1.561   0.000  1.00  0.00     0.016 C 
ATOM      8  C   UNL     1       2.862   2.072   0.000  1.00  0.00     0.011 C 
ATOM      9  C   UNL     1       1.369   2.213   0.000  1.00  0.00     0.008 C 
ATOM     10  C   UNL     1       0.500   0.991   0.000  1.00  0.00     0.035 C 
ATOM     11  C   UNL     1      -0.993   1.131   0.000  1.00  0.00    -0.023 C 
ATOM     12  C   UNL     1      -0.124   2.354   0.000  1.00  0.00     0.012 C 
ATOM     13  C   UNL     1      -1.618   2.495   0.000  1.00  0.00     0.007 C 
ATOM     14  C   UNL     1      -3.111   2.636   0.000  1.00  0.00     0.001 C 
ATOM     15  C   UNL     1      -3.980   1.413   0.000  1.00  0.00     0.007 C 
ATOM     16  C   UNL     1      -3.355   0.050   0.000  1.00  0.00    -0.032 C 
ATOM     17  C   UNL     1      -3.418  -1.449   0.000  1.00  0.00     0.011 C 
ATOM     18  C   UNL     1      -4.807  -0.329   0.000  1.00  0.00     0.011 C 
ATOM     19  C   UNL     1      -1.862  -0.091   0.000  1.00  0.00     0.008 C 
ENDROOT
BRANCH   4  20
ATOM     20  O   UNL     1       1.750  -1.737   0.000  1.00  0.00    -0.382 OA
ATOM     21  H   UNL     1       0.000   0.000   0.000  1.00  0.00     0.212 HD
ENDBRANCH   4  20
BRANCH   6  22
ATOM     22  C   UNL     1       4.540  -0.359   0.000  1.00  0.00    -0.028 C 
ATOM     23  C   UNL     1       4.142  -1.806   0.000  1.00  0.00     0.004 C 
ENDBRANCH   6  22
TORSDOF 2
