REMARK SMILES CCCCCCCCCC1CCCCC1
REMARK SMILES IDX 5 1 4 2 3 3 2 4 1 5 6 6 7 7 8 8 9 9 10 10 11 11 15 12 12 13
REMARK SMILES IDX 14 14 13 15
REMARK H PARENT
ROOT
ATOM      1  C   UNL     1      -3.183  -0.476   0.000  1.00  0.00    -0.000 C 
ENDROOT
BRANCH   1   2
ATOM      2  C   UNL     1      -4.399   0.404   0.000  1.00  0.00    -0.000 C 
BRANCH   2   3
ATOM      3  C   UNL     1      -5.768  -0.209   0.000  1.00  0.00    -0.000 C 
BRANCH   3   4
ATOM      4  C   UNL     1      -6.983   0.670   0.000  1.00  0.00    -0.003 C 
ATOM      5  C   UNL     1      -8.352   0.058   0.000  1.00  0.00     0.004 C 
ENDBRANCH   3   4
ENDBRANCH   2   3
ENDBRANCH   1   2
BRANCH   1   6
ATOM      6  C   UNL     1      -1.814   0.137   0.000  1.00  0.00     0.000 C 
BRANCH   6   7
ATOM      7  C   UNL     1      -0.599  -0.742   0.000  1.00  0.00     0.000 C 
BRANCH   7   8
ATOM      8  C   UNL     1       0.770  -0.130   0.000  1.00  0.00     0.000 C 
BRANCH   8   9
ATOM      9  C   UNL     1       1.985  -1.009   0.000  1.00  0.00     0.003 C 
BRANCH   9  10
ATOM     10  C   UNL     1       3.354  -0.397   0.000  1.00  0.00    -0.011 C 
ATOM     11  C   UNL     1       3.509   1.096   0.000  1.00  0.00     0.003 C 
ATOM     12  C   UNL     1       4.570  -1.276   0.000  1.00  0.00     0.003 C 
ATOM     13  C   UNL     1       4.878   1.708   0.000  1.00  0.00     0.000 C 
ATOM     14  C   UNL     1       5.939  -0.663   0.000  1.00  0.00     0.000 C 
ATOM     15  C   UNL     1       6.093   0.829   0.000  1.00  0.00     0.000 C 
ENDBRANCH   9  10
ENDBRANCH   8   9
ENDBRANCH   7   8
ENDBRANCH   6   7
ENDBRANCH   1   6
TORSDOF 8
