REMARK SMILES CC(=O)O[C@H]1[C@@H](OC(C)=O)[C@]2(C)[C@H](CC[C@@]3(C)[C@H](c4ccoc4)C[C@H]4O[C@@]423)[C@@]2(C)C=CC(=O)C(C)(C)[C@H]12
REMARK SMILES IDX 5 1 6 2 11 3 12 4 13 5 14 6 15 7 16 8 17 9 18 10 24 11 25 12
REMARK SMILES IDX 26 13 27 14 28 15 29 16 30 17 31 18 32 19 33 20 34 21 35 22
REMARK SMILES IDX 36 23 37 24 4 25 2 26 1 27 3 28 7 29 8 30 9 31 10 32 19 33
REMARK SMILES IDX 23 34 20 35 22 36 21 37
REMARK H PARENT
ROOT
ATOM      1  C   UNL     1      -2.526  -0.710   0.000  1.00  0.00     0.223 C 
ATOM      2  C   UNL     1      -1.085  -1.126   0.000  1.00  0.00     0.227 C 
ATOM      3  C   UNL     1      -0.004  -0.085   0.000  1.00  0.00     0.044 C 
ATOM      4  C   UNL     1      -1.445   0.331   0.000  1.00  0.00     0.019 C 
ATOM      5  C   UNL     1      -0.365   1.371   0.000  1.00  0.00     0.012 C 
ATOM      6  C   UNL     1       0.716   2.411   0.000  1.00  0.00     0.006 C 
ATOM      7  C   UNL     1       2.157   1.995   0.000  1.00  0.00     0.011 C 
ATOM      8  C   UNL     1       2.518   0.539   0.000  1.00  0.00     0.007 C 
ATOM      9  C   UNL     1       3.701   1.460   0.000  1.00  0.00     0.015 C 
ATOM     10  C   UNL     1       3.841  -0.168   0.000  1.00  0.00     0.034 C 
ATOM     11  C   UNL     1       3.578  -1.645   0.000  1.00  0.00     0.044 C 
ATOM     12  C   UNL     1       2.092  -1.851   0.000  1.00  0.00     0.153 C 
ATOM     13  O   UNL     1       0.596  -1.744   0.000  1.00  0.00    -0.365 OA
ATOM     14  C   UNL     1       1.437  -0.501   0.000  1.00  0.00     0.110 C 
ATOM     15  C   UNL     1      -1.806   1.787   0.000  1.00  0.00    -0.003 C 
ATOM     16  C   UNL     1      -0.725   2.827   0.000  1.00  0.00     0.016 C 
ATOM     17  C   UNL     1      -2.166   3.243   0.000  1.00  0.00    -0.016 C 
ATOM     18  C   UNL     1      -3.607   3.659   0.000  1.00  0.00     0.044 C 
ATOM     19  C   UNL     1      -4.688   2.619   0.000  1.00  0.00     0.161 C 
ATOM     20  O   UNL     1      -6.129   3.034   0.000  1.00  0.00    -0.294 OA
ATOM     21  C   UNL     1      -4.328   1.162   0.000  1.00  0.00     0.035 C 
ATOM     22  C   UNL     1      -4.487  -0.329   0.000  1.00  0.00     0.020 C 
ATOM     23  C   UNL     1      -5.824   1.060   0.000  1.00  0.00     0.020 C 
ATOM     24  C   UNL     1      -2.887   0.747   0.000  1.00  0.00     0.057 C 
ENDROOT
BRANCH   1  25
ATOM     25  O   UNL     1      -3.607  -1.750   0.000  1.00  0.00    -0.458 OA
BRANCH  25  26
ATOM     26  C   UNL     1      -3.247  -3.206   0.000  1.00  0.00     0.303 C 
ATOM     27  C   UNL     1      -4.327  -4.246   0.000  1.00  0.00     0.139 C 
ATOM     28  O   UNL     1      -1.806  -3.622   0.000  1.00  0.00    -0.253 OA
ENDBRANCH  25  26
ENDBRANCH   1  25
BRANCH   2  29
ATOM     29  O   UNL     1      -0.725  -2.582   0.000  1.00  0.00    -0.458 OA
BRANCH  29  30
ATOM     30  C   UNL     1       0.717  -2.998   0.000  1.00  0.00     0.303 C 
ATOM     31  C   UNL     1       1.664  -2.453   0.000  1.00  0.00     0.139 C 
ATOM     32  O   UNL     1       1.077  -4.454   0.000  1.00  0.00    -0.253 OA
ENDBRANCH  29  30
ENDBRANCH   2  29
BRANCH  10  33
ATOM     33  C   UNL     1       5.190   0.487   0.000  1.00  0.00    -0.006 A 
ATOM     34  C   UNL     1       5.453   1.964   0.000  1.00  0.00     0.198 A 
ATOM     35  C   UNL     1       6.513  -0.219   0.000  1.00  0.00     0.046 A 
ATOM     36  O   UNL     1       6.939   2.170   0.000  1.00  0.00    -0.472 OA
ATOM     37  C   UNL     1       7.594   0.821   0.000  1.00  0.00     0.195 A 
ENDBRANCH  10  33
TORSDOF 5
