REMARK SMILES C=C1C2CC[C@@]3(C)[C@H](c4ccoc4)OC(=O)CC13OC1CC(=O)CC(CC(=O)OC)[C@]12C
REMARK SMILES IDX 26 1 25 2 2 3 3 4 18 5 4 6 31 7 17 8 19 9 6 10 5 11 20 12
REMARK SMILES IDX 15 13 8 14 24 15 21 16 14 17 22 18 1 19 32 20 7 21 16 22
REMARK SMILES IDX 23 23 9 24 13 25 10 26 12 27 11 28 27 29 28 30 29 31 30 32
REMARK H PARENT
ROOT
ATOM      1  C   UNL     1      -3.639   1.496   0.000  1.00  0.00     0.127 C 
ENDROOT
BRANCH   1   2
ATOM      2  C   UNL     1      -3.194   0.064   0.000  1.00  0.00     0.016 C 
ATOM      3  C   UNL     1      -0.268  -0.598   0.000  1.00  0.00    -0.041 C 
ATOM      4  C   UNL     1      -0.713   0.835   0.000  1.00  0.00     0.026 C 
ATOM      5  C   UNL     1       1.196  -0.928   0.000  1.00  0.00     0.109 C 
ATOM      6  C   UNL     1       0.305   1.937   0.000  1.00  0.00     0.009 C 
ATOM      7  C   UNL     1      -1.731  -0.267   0.000  1.00  0.00     0.005 C 
ATOM      8  C   UNL     1       1.641  -2.361   0.000  1.00  0.00     0.163 C 
ATOM      9  O   UNL     1       0.178  -2.030   0.000  1.00  0.00    -0.365 OA
ATOM     10  C   UNL     1       2.213   0.173   0.000  1.00  0.00     0.043 C 
ATOM     11  C   UNL     1       1.768   1.606   0.000  1.00  0.00     0.015 C 
ATOM     12  C   UNL     1      -1.286  -1.699   0.000  1.00  0.00     0.133 C 
ATOM     13  C   UNL     1       3.104  -2.691   0.000  1.00  0.00     0.309 C 
ATOM     14  C   UNL     1       3.676  -0.157   0.000  1.00  0.00     0.219 C 
ATOM     15  C   UNL     1      -4.212  -1.038   0.000  1.00  0.00     0.080 C 
ATOM     16  C   UNL     1      -2.303  -2.801   0.000  1.00  0.00     0.108 C 
ATOM     17  O   UNL     1       4.122  -1.590   0.000  1.00  0.00    -0.457 OA
ATOM     18  C   UNL     1      -3.767  -2.470   0.000  1.00  0.00     0.135 C 
ATOM     19  C   UNL     1      -0.934  -1.035   0.000  1.00  0.00     0.011 C 
ATOM     20  C   UNL     1      -2.176   1.165   0.000  1.00  0.00     0.015 C 
ATOM     21  C   UNL     1       3.231   1.275   0.000  1.00  0.00     0.019 C 
ATOM     22  O   UNL     1       3.549  -4.124   0.000  1.00  0.00    -0.252 OA
ATOM     23  O   UNL     1      -4.784  -3.572   0.000  1.00  0.00    -0.300 OA
BRANCH  14  24
ATOM     24  C   UNL     1       4.694   0.945   0.000  1.00  0.00     0.031 A 
ATOM     25  C   UNL     1       4.401   2.416   0.000  1.00  0.00     0.202 A 
ATOM     26  C   UNL     1       6.184   0.769   0.000  1.00  0.00     0.049 A 
ATOM     27  O   UNL     1       5.710   3.149   0.000  1.00  0.00    -0.472 OA
ATOM     28  C   UNL     1       6.812   2.131   0.000  1.00  0.00     0.195 A 
ENDBRANCH  14  24
ENDBRANCH   1   2
BRANCH   1  29
ATOM     29  C   UNL     1      -5.102   1.827   0.000  1.00  0.00     0.305 C 
ATOM     30  O   UNL     1      -6.120   0.725   0.000  1.00  0.00    -0.252 OA
BRANCH  29  31
ATOM     31  O   UNL     1      -5.547   3.259   0.000  1.00  0.00    -0.469 OA
ATOM     32  C   UNL     1      -7.010   3.590   0.000  1.00  0.00     0.282 C 
ENDBRANCH  29  31
ENDBRANCH   1  29
TORSDOF 4
