REMARK SMILES O=C1C=CC[C@H](C[C@@H]2C[C@@H](O)[C@@H](O)[C@@H](/C=C/c3ccccc3)O2)O1
REMARK SMILES IDX 8 1 9 2 10 3 12 4 14 5 23 6 7 7 6 8 2 9 3 10 24 11 4 12 5 13
REMARK SMILES IDX 1 14 11 15 15 17 16 18 17 19 18 20 22 21 19 22 21 23 20 24
REMARK SMILES IDX 13 25
REMARK H PARENT 11 16 13 26
ROOT
ATOM      1  C   UNL     1      -1.305   0.288   0.000  1.00  0.00     0.125 C 
ATOM      2  C   UNL     1      -1.962  -1.060   0.000  1.00  0.00     0.066 C 
ATOM      3  C   UNL     1      -1.123  -2.303   0.000  1.00  0.00     0.148 C 
ATOM      4  C   UNL     1       0.373  -2.199   0.000  1.00  0.00     0.176 C 
ATOM      5  C   UNL     1       1.031  -0.850   0.000  1.00  0.00     0.172 C 
ATOM      6  O   UNL     1       0.192   0.393   0.000  1.00  0.00    -0.368 OA
ENDROOT
BRANCH   1   7
ATOM      7  C   UNL     1      -2.144   1.532   0.000  1.00  0.00     0.077 C 
BRANCH   7   8
ATOM      8  C   UNL     1      -3.640   1.427   0.000  1.00  0.00     0.183 C 
ATOM      9  C   UNL     1      -5.794  -0.026   0.000  1.00  0.00     0.330 C 
ATOM     10  C   UNL     1      -6.633   1.217   0.000  1.00  0.00     0.089 C 
ATOM     11  O   UNL     1      -4.297   0.079   0.000  1.00  0.00    -0.459 OA
ATOM     12  C   UNL     1      -5.975   2.565   0.000  1.00  0.00    -0.016 C 
ATOM     13  C   UNL     1      -4.479   2.670   0.000  1.00  0.00     0.073 C 
ATOM     14  O   UNL     1      -6.451  -1.375   0.000  1.00  0.00    -0.247 OA
ENDBRANCH   7   8
ENDBRANCH   1   7
BRANCH   3  15
ATOM     15  O   UNL     1      -1.780  -3.652   0.000  1.00  0.00    -0.390 OA
ATOM     16  H   UNL     1       0.000   0.000   0.000  1.00  0.00     0.211 HD
ENDBRANCH   3  15
BRANCH   5  17
ATOM     17  C   UNL     1       2.527  -0.745   0.000  1.00  0.00     0.008 C 
BRANCH  17  18
ATOM     18  C   UNL     1       3.184   0.603   0.000  1.00  0.00     0.006 C 
BRANCH  18  19
ATOM     19  C   UNL     1       4.681   0.708   0.000  1.00  0.00    -0.026 A 
ATOM     20  C   UNL     1       5.520  -0.535   0.000  1.00  0.00     0.008 A 
ATOM     21  C   UNL     1       5.338   2.056   0.000  1.00  0.00     0.008 A 
ATOM     22  C   UNL     1       7.016  -0.431   0.000  1.00  0.00     0.001 A 
ATOM     23  C   UNL     1       6.834   2.161   0.000  1.00  0.00     0.001 A 
ATOM     24  C   UNL     1       7.673   0.918   0.000  1.00  0.00     0.000 A 
ENDBRANCH  18  19
ENDBRANCH  17  18
ENDBRANCH   5  17
BRANCH   4  25
ATOM     25  O   UNL     1       1.212  -3.442   0.000  1.00  0.00    -0.387 OA
ATOM     26  H   UNL     1       0.000   0.000   0.000  1.00  0.00     0.211 HD
ENDBRANCH   4  25
TORSDOF 7
