REMARK SMILES COc1cc2oc(C)cc(=O)c2c(O)c1OC
REMARK SMILES IDX 3 1 4 2 5 3 12 4 13 5 15 6 10 7 11 8 9 9 7 10 8 11 6 12 2 13
REMARK SMILES IDX 1 14 16 15 17 16 14 17
REMARK H PARENT 14 18
ROOT
ATOM      1  C   UNL     1      -1.878   0.783   0.000  1.00  0.00     0.168 A 
ATOM      2  C   UNL     1      -0.621   1.601   0.000  1.00  0.00     0.098 A 
ATOM      3  C   UNL     1       0.716   0.922   0.000  1.00  0.00     0.145 A 
ATOM      4  C   UNL     1       0.796  -0.576   0.000  1.00  0.00     0.111 A 
ATOM      5  C   UNL     1      -0.461  -1.394   0.000  1.00  0.00     0.176 A 
ATOM      6  C   UNL     1      -1.798  -0.715   0.000  1.00  0.00     0.204 A 
ATOM      7  C   UNL     1       2.133  -1.256   0.000  1.00  0.00     0.196 A 
ATOM      8  O   UNL     1       2.213  -2.754   0.000  1.00  0.00    -0.289 OA
ATOM      9  C   UNL     1       3.390  -0.438   0.000  1.00  0.00     0.095 A 
ATOM     10  C   UNL     1       3.310   1.060   0.000  1.00  0.00     0.105 A 
ATOM     11  C   UNL     1       4.568   1.878   0.000  1.00  0.00     0.088 C 
ATOM     12  O   UNL     1       1.973   1.740   0.000  1.00  0.00    -0.461 OA
ENDROOT
BRANCH   1  13
ATOM     13  O   UNL     1      -3.216   1.463   0.000  1.00  0.00    -0.493 OA
ATOM     14  C   UNL     1      -3.295   2.961   0.000  1.00  0.00     0.278 C 
ENDBRANCH   1  13
BRANCH   6  15
ATOM     15  O   UNL     1      -3.056  -1.533   0.000  1.00  0.00    -0.490 OA
ATOM     16  C   UNL     1      -4.393  -0.853   0.000  1.00  0.00     0.278 C 
ENDBRANCH   6  15
BRANCH   5  17
ATOM     17  O   UNL     1      -0.381  -2.892   0.000  1.00  0.00    -0.504 OA
ATOM     18  H   UNL     1       0.000   0.000   0.000  1.00  0.00     0.293 HD
ENDBRANCH   5  17
TORSDOF 3
