REMARK SMILES COc1ccc([C@H]2CC(=O)c3c(cc(OC)c(C)c3O)O2)cc1
REMARK SMILES IDX 7 1 8 2 9 3 10 4 11 5 12 6 13 7 14 8 17 9 18 10 19 11 21 12
REMARK SMILES IDX 6 13 3 14 4 15 23 16 5 17 22 18 2 19 1 20 20 21 15 23 16 24
REMARK H PARENT 20 22
ROOT
ATOM      1  C   UNL     1      -0.963  -0.483   0.000  1.00  0.00     0.211 C 
ATOM      2  C   UNL     1      -0.416  -1.879   0.000  1.00  0.00     0.131 C 
ATOM      3  C   UNL     1       1.067  -2.103   0.000  1.00  0.00     0.174 C 
ATOM      4  O   UNL     1       1.615  -3.500   0.000  1.00  0.00    -0.294 OA
ATOM      5  C   UNL     1       2.003  -0.931   0.000  1.00  0.00     0.102 A 
ATOM      6  C   UNL     1       1.455   0.466   0.000  1.00  0.00     0.138 A 
ATOM      7  C   UNL     1       2.391   1.638   0.000  1.00  0.00     0.094 A 
ATOM      8  C   UNL     1       3.874   1.414   0.000  1.00  0.00     0.129 A 
ATOM      9  C   UNL     1       4.422   0.018   0.000  1.00  0.00     0.034 A 
ATOM     10  C   UNL     1       5.905  -0.206   0.000  1.00  0.00     0.052 C 
ATOM     11  C   UNL     1       3.486  -1.155   0.000  1.00  0.00     0.136 A 
ATOM     12  O   UNL     1      -0.028   0.690   0.000  1.00  0.00    -0.484 OA
ENDROOT
BRANCH   1  13
ATOM     13  C   UNL     1      -2.446  -0.259   0.000  1.00  0.00    -0.007 A 
ATOM     14  C   UNL     1      -5.413   0.189   0.000  1.00  0.00     0.118 A 
ATOM     15  C   UNL     1      -4.477   1.362   0.000  1.00  0.00     0.047 A 
ATOM     16  C   UNL     1      -4.865  -1.207   0.000  1.00  0.00     0.047 A 
ATOM     17  C   UNL     1      -2.994   1.138   0.000  1.00  0.00     0.011 A 
ATOM     18  C   UNL     1      -3.382  -1.431   0.000  1.00  0.00     0.011 A 
BRANCH  14  19
ATOM     19  O   UNL     1      -6.896   0.413   0.000  1.00  0.00    -0.497 OA
ATOM     20  C   UNL     1      -7.444   1.810   0.000  1.00  0.00     0.278 C 
ENDBRANCH  14  19
ENDBRANCH   1  13
BRANCH  11  21
ATOM     21  O   UNL     1       4.034  -2.551   0.000  1.00  0.00    -0.507 OA
ATOM     22  H   UNL     1       0.000   0.000   0.000  1.00  0.00     0.293 HD
ENDBRANCH  11  21
BRANCH   8  23
ATOM     23  O   UNL     1       4.810   2.587   0.000  1.00  0.00    -0.496 OA
ATOM     24  C   UNL     1       4.262   3.983   0.000  1.00  0.00     0.278 C 
ENDBRANCH   8  23
TORSDOF 4
