REMARK SMILES C[C@@H](C(O)C(O)C(O)C(C)(C)O)[C@@H]1CC[C@]2(C)C3=CC[C@H]4C(C)(C)[C@H](O)CC[C@]4(C)[C@H]3CC[C@@]12C
REMARK SMILES IDX 3 1 2 2 1 3 13 4 14 5 34 6 15 7 33 8 16 9 32 10 18 11 31 12
REMARK SMILES IDX 19 13 29 14 20 15 28 16 21 17 27 18 22 19 25 20 35 21 17 22
REMARK SMILES IDX 30 23 23 24 24 25 26 26 4 28 5 30 6 31 7 33 8 34 9 36 10 37
REMARK SMILES IDX 11 38 12 39
REMARK H PARENT 26 27 4 29 6 32 8 35 12 40
ROOT
ATOM      1  C   UNL     1       3.541   0.340   0.000  1.00  0.00     0.149 C 
ENDROOT
BRANCH   1   2
ATOM      2  C   UNL     1       3.158   1.791   0.000  1.00  0.00     0.021 C 
ATOM      3  C   UNL     1       4.223   2.847   0.000  1.00  0.00     0.011 C 
BRANCH   2   4
ATOM      4  C   UNL     1       1.711   2.184   0.000  1.00  0.00     0.001 C 
ATOM      5  C   UNL     1       1.178   3.587   0.000  1.00  0.00     0.005 C 
ATOM      6  C   UNL     1       0.541   1.245   0.000  1.00  0.00    -0.020 C 
ATOM      7  C   UNL     1      -0.320   3.514   0.000  1.00  0.00     0.012 C 
ATOM      8  C   UNL     1       0.457  -0.253   0.000  1.00  0.00     0.008 C 
ATOM      9  C   UNL     1      -0.714   2.067   0.000  1.00  0.00    -0.006 C 
ATOM     10  C   UNL     1      -0.882  -0.929   0.000  1.00  0.00     0.009 C 
ATOM     11  C   UNL     1      -2.053   1.391   0.000  1.00  0.00    -0.064 C 
ATOM     12  C   UNL     1      -2.137  -0.107   0.000  1.00  0.00     0.021 C 
ATOM     13  C   UNL     1      -3.308   2.212   0.000  1.00  0.00    -0.027 C 
ATOM     14  C   UNL     1      -3.476  -0.783   0.000  1.00  0.00    -0.022 C 
ATOM     15  C   UNL     1      -4.647   1.536   0.000  1.00  0.00     0.032 C 
ATOM     16  C   UNL     1      -3.560  -2.281   0.000  1.00  0.00     0.010 C 
ATOM     17  C   UNL     1      -4.731   0.039   0.000  1.00  0.00     0.007 C 
ATOM     18  C   UNL     1      -4.899  -2.957   0.000  1.00  0.00     0.033 C 
ATOM     19  C   UNL     1      -6.070  -0.637   0.000  1.00  0.00    -0.006 C 
ATOM     20  C   UNL     1      -6.154  -2.135   0.000  1.00  0.00     0.120 C 
ATOM     21  C   UNL     1       1.875   0.559   0.000  1.00  0.00     0.012 C 
ATOM     22  C   UNL     1      -1.876   3.015   0.000  1.00  0.00     0.017 C 
ATOM     23  C   UNL     1      -2.221  -1.605   0.000  1.00  0.00     0.012 C 
ATOM     24  C   UNL     1      -7.559  -0.815   0.000  1.00  0.00     0.014 C 
ATOM     25  C   UNL     1      -6.503   0.799   0.000  1.00  0.00     0.014 C 
BRANCH  20  26
ATOM     26  O   UNL     1      -7.493  -2.811   0.000  1.00  0.00    -0.393 OA
ATOM     27  H   UNL     1       0.000   0.000   0.000  1.00  0.00     0.210 HD
ENDBRANCH  20  26
ENDBRANCH   2   4
ENDBRANCH   1   2
BRANCH   1  28
ATOM     28  O   UNL     1       2.476  -0.716   0.000  1.00  0.00    -0.390 OA
ATOM     29  H   UNL     1       0.000   0.000   0.000  1.00  0.00     0.211 HD
ENDBRANCH   1  28
BRANCH   1  30
ATOM     30  C   UNL     1       4.988  -0.053   0.000  1.00  0.00     0.174 C 
BRANCH  30  31
ATOM     31  O   UNL     1       6.053   1.003   0.000  1.00  0.00    -0.388 OA
ATOM     32  H   UNL     1       0.000   0.000   0.000  1.00  0.00     0.211 HD
ENDBRANCH  30  31
BRANCH  30  33
ATOM     33  C   UNL     1       5.371  -1.504   0.000  1.00  0.00     0.176 C 
BRANCH  33  34
ATOM     34  O   UNL     1       4.306  -2.560   0.000  1.00  0.00    -0.387 OA
ATOM     35  H   UNL     1       0.000   0.000   0.000  1.00  0.00     0.211 HD
ENDBRANCH  33  34
BRANCH  33  36
ATOM     36  C   UNL     1       6.818  -1.897   0.000  1.00  0.00     0.088 C 
ATOM     37  C   UNL     1       7.212  -0.450   0.000  1.00  0.00     0.044 C 
ATOM     38  C   UNL     1       6.425  -3.345   0.000  1.00  0.00     0.044 C 
BRANCH  36  39
ATOM     39  O   UNL     1       8.266  -2.291   0.000  1.00  0.00    -0.388 OA
ATOM     40  H   UNL     1       0.000   0.000   0.000  1.00  0.00     0.211 HD
ENDBRANCH  36  39
ENDBRANCH  33  36
ENDBRANCH  30  33
ENDBRANCH   1  30
TORSDOF 10
