REMARK SMILES COc1ccc(-c2cc(=O)c3c(O)cc(OC)c([C@@H]4O[C@H](CO)[C@@H](O)[C@H](O)[C@H]4O[C@@H]4O[C@@H](C)[C@H](O)[C@@H](O)[C@H]4O)c3o2)cc1
REMARK SMILES IDX 19 1 20 2 21 3 24 4 26 5 28 6 18 7 7 8 8 9 41 10 9 11 40 12
REMARK SMILES IDX 11 13 12 14 15 15 14 16 10 17 6 18 3 19 4 20 43 21 5 22
REMARK SMILES IDX 42 23 2 24 1 25 13 26 16 28 17 29 29 30 30 31 31 32 38 33
REMARK SMILES IDX 32 34 36 35 34 36 33 37 39 38 37 40 35 42 22 44 23 45 27 47
REMARK SMILES IDX 25 49
REMARK H PARENT 13 27 39 39 37 41 35 43 23 46 27 48 25 50
ROOT
ATOM      1  C   UNL     1       0.284   0.193   0.000  1.00  0.00     0.188 C 
ATOM      2  O   UNL     1      -0.846   1.179   0.000  1.00  0.00    -0.362 OA
ATOM      3  C   UNL     1      -0.556   2.651   0.000  1.00  0.00     0.176 C 
ATOM      4  C   UNL     1       0.863   3.137   0.000  1.00  0.00     0.177 C 
ATOM      5  C   UNL     1       1.993   2.150   0.000  1.00  0.00     0.177 C 
ATOM      6  C   UNL     1       1.704   0.678   0.000  1.00  0.00     0.186 C 
ENDROOT
BRANCH   1   7
ATOM      7  C   UNL     1      -0.005  -1.279   0.000  1.00  0.00     0.069 A 
ATOM      8  C   UNL     1      -3.974  -1.263   0.000  1.00  0.00     0.138 A 
ATOM      9  C   UNL     1      -4.263  -2.735   0.000  1.00  0.00     0.100 A 
ATOM     10  O   UNL     1      -2.554  -0.778   0.000  1.00  0.00    -0.455 OA
ATOM     11  C   UNL     1      -3.133  -3.721   0.000  1.00  0.00     0.197 A 
ATOM     12  C   UNL     1      -1.425  -1.764   0.000  1.00  0.00     0.152 A 
ATOM     13  C   UNL     1      -1.714  -3.236   0.000  1.00  0.00     0.107 A 
ATOM     14  C   UNL     1      -0.584  -4.223   0.000  1.00  0.00     0.134 A 
ATOM     15  C   UNL     1       1.125  -2.265   0.000  1.00  0.00     0.132 A 
ATOM     16  C   UNL     1       0.835  -3.737   0.000  1.00  0.00     0.094 A 
ATOM     17  O   UNL     1      -3.422  -5.193   0.000  1.00  0.00    -0.289 OA
BRANCH   8  18
ATOM     18  C   UNL     1      -5.104  -0.276   0.000  1.00  0.00     0.018 A 
ATOM     19  C   UNL     1      -7.364   1.697   0.000  1.00  0.00     0.118 A 
ATOM     20  C   UNL     1      -5.944   2.182   0.000  1.00  0.00     0.047 A 
ATOM     21  C   UNL     1      -7.653   0.225   0.000  1.00  0.00     0.047 A 
ATOM     22  C   UNL     1      -4.814   1.195   0.000  1.00  0.00     0.016 A 
ATOM     23  C   UNL     1      -6.523  -0.762   0.000  1.00  0.00     0.016 A 
BRANCH  19  24
ATOM     24  O   UNL     1      -8.493   2.683   0.000  1.00  0.00    -0.497 OA
ATOM     25  C   UNL     1      -8.204   4.155   0.000  1.00  0.00     0.278 C 
ENDBRANCH  19  24
ENDBRANCH   8  18
BRANCH  14  26
ATOM     26  O   UNL     1      -0.873  -5.694   0.000  1.00  0.00    -0.507 OA
ATOM     27  H   UNL     1       0.000   0.000   0.000  1.00  0.00     0.293 HD
ENDBRANCH  14  26
BRANCH  15  28
ATOM     28  O   UNL     1       2.544  -1.780   0.000  1.00  0.00    -0.496 OA
ATOM     29  C   UNL     1       3.674  -2.767   0.000  1.00  0.00     0.278 C 
ENDBRANCH  15  28
ENDBRANCH   1   7
BRANCH   6  30
ATOM     30  O   UNL     1       2.833  -0.308   0.000  1.00  0.00    -0.341 OA
BRANCH  30  31
ATOM     31  C   UNL     1       4.253   0.177   0.000  1.00  0.00     0.282 C 
ATOM     32  O   UNL     1       4.542   1.649   0.000  1.00  0.00    -0.344 OA
ATOM     33  C   UNL     1       5.383  -0.809   0.000  1.00  0.00     0.202 C 
ATOM     34  C   UNL     1       5.962   2.134   0.000  1.00  0.00     0.150 C 
ATOM     35  C   UNL     1       6.802  -0.324   0.000  1.00  0.00     0.179 C 
ATOM     36  C   UNL     1       7.091   1.148   0.000  1.00  0.00     0.174 C 
ATOM     37  C   UNL     1       6.251   3.606   0.000  1.00  0.00     0.041 C 
BRANCH  33  38
ATOM     38  O   UNL     1       5.093  -2.281   0.000  1.00  0.00    -0.385 OA
ATOM     39  H   UNL     1       0.000   0.000   0.000  1.00  0.00     0.211 HD
ENDBRANCH  33  38
BRANCH  35  40
ATOM     40  O   UNL     1       7.932  -1.311   0.000  1.00  0.00    -0.387 OA
ATOM     41  H   UNL     1       0.000   0.000   0.000  1.00  0.00     0.211 HD
ENDBRANCH  35  40
BRANCH  36  42
ATOM     42  O   UNL     1       8.511   1.633   0.000  1.00  0.00    -0.388 OA
ATOM     43  H   UNL     1       0.000   0.000   0.000  1.00  0.00     0.211 HD
ENDBRANCH  36  42
ENDBRANCH  30  31
ENDBRANCH   6  30
BRANCH   3  44
ATOM     44  C   UNL     1      -1.686   3.638   0.000  1.00  0.00     0.191 C 
BRANCH  44  45
ATOM     45  O   UNL     1      -3.106   3.152   0.000  1.00  0.00    -0.394 OA
ATOM     46  H   UNL     1       0.000   0.000   0.000  1.00  0.00     0.210 HD
ENDBRANCH  44  45
ENDBRANCH   3  44
BRANCH   5  47
ATOM     47  O   UNL     1       3.412   2.635   0.000  1.00  0.00    -0.387 OA
ATOM     48  H   UNL     1       0.000   0.000   0.000  1.00  0.00     0.211 HD
ENDBRANCH   5  47
BRANCH   4  49
ATOM     49  O   UNL     1       1.152   4.608   0.000  1.00  0.00    -0.388 OA
ATOM     50  H   UNL     1       0.000   0.000   0.000  1.00  0.00     0.211 HD
ENDBRANCH   4  49
TORSDOF 14
