REMARK SMILES COc1cc2nc3occc3c(OC)c2cc1OC
REMARK SMILES IDX 3 1 4 2 5 3 6 4 7 5 11 6 10 7 9 8 8 9 12 10 15 11 16 12
REMARK SMILES IDX 17 13 2 14 1 15 18 16 19 17 13 18 14 19
REMARK H PARENT
ROOT
ATOM      1  C   UNL     1       2.784   0.756   0.000  1.00  0.00     0.162 A 
ATOM      2  C   UNL     1       1.591   1.666   0.000  1.00  0.00     0.079 A 
ATOM      3  C   UNL     1       0.207   1.088   0.000  1.00  0.00     0.082 A 
ATOM      4  N   UNL     1      -0.986   1.997   0.000  1.00  0.00    -0.212 NA
ATOM      5  C   UNL     1      -2.370   1.419   0.000  1.00  0.00     0.230 A 
ATOM      6  C   UNL     1      -2.561  -0.069   0.000  1.00  0.00     0.083 A 
ATOM      7  C   UNL     1      -4.035  -0.346   0.000  1.00  0.00     0.056 A 
ATOM      8  C   UNL     1      -4.755   0.970   0.000  1.00  0.00     0.198 A 
ATOM      9  O   UNL     1      -3.726   2.061   0.000  1.00  0.00    -0.446 OA
ATOM     10  C   UNL     1      -1.369  -0.978   0.000  1.00  0.00     0.141 A 
ATOM     11  C   UNL     1       0.016  -0.400   0.000  1.00  0.00     0.047 A 
ATOM     12  C   UNL     1       1.208  -1.310   0.000  1.00  0.00     0.064 A 
ATOM     13  C   UNL     1       2.592  -0.732   0.000  1.00  0.00     0.161 A 
ENDROOT
BRANCH   1  14
ATOM     14  O   UNL     1       4.168   1.334   0.000  1.00  0.00    -0.493 OA
ATOM     15  C   UNL     1       4.359   2.822   0.000  1.00  0.00     0.278 C 
ENDBRANCH   1  14
BRANCH  13  16
ATOM     16  O   UNL     1       3.785  -1.641   0.000  1.00  0.00    -0.493 OA
ATOM     17  C   UNL     1       3.594  -3.129   0.000  1.00  0.00     0.278 C 
ENDBRANCH  13  16
BRANCH  10  18
ATOM     18  O   UNL     1      -1.560  -2.466   0.000  1.00  0.00    -0.495 OA
ATOM     19  C   UNL     1      -2.944  -3.044   0.000  1.00  0.00     0.278 C 
ENDBRANCH  10  18
TORSDOF 3
