REMARK SMILES CC(C)=CCCC(C)=CCOc1ccc(C(=O)O)cc1
REMARK SMILES IDX 9 1 7 2 8 3 6 4 5 5 4 6 2 7 1 8 3 9 10 10 11 11 12 12 13 13
REMARK SMILES IDX 20 14 14 15 19 16 15 17 16 18 17 19 18 20
REMARK H PARENT 18 21
ROOT
ATOM      1  C   UNL     1      -1.438  -2.578   0.000  1.00  0.00     0.013 C 
ENDROOT
BRANCH   1   2
ATOM      2  C   UNL     1      -2.837  -2.038   0.000  1.00  0.00    -0.074 C 
ATOM      3  C   UNL     1      -4.005  -2.979   0.000  1.00  0.00     0.039 C 
BRANCH   2   4
ATOM      4  C   UNL     1      -3.069  -0.556   0.000  1.00  0.00     0.034 C 
BRANCH   4   5
ATOM      5  C   UNL     1      -4.468  -0.015   0.000  1.00  0.00     0.032 C 
BRANCH   5   6
ATOM      6  C   UNL     1      -4.700   1.467   0.000  1.00  0.00    -0.028 C 
BRANCH   6   7
ATOM      7  C   UNL     1      -6.099   2.007   0.000  1.00  0.00    -0.080 C 
ATOM      8  C   UNL     1      -6.331   3.489   0.000  1.00  0.00     0.039 C 
ATOM      9  C   UNL     1      -7.267   1.065   0.000  1.00  0.00     0.039 C 
ENDBRANCH   6   7
ENDBRANCH   5   6
ENDBRANCH   4   5
ENDBRANCH   2   4
ENDBRANCH   1   2
BRANCH   1  10
ATOM     10  C   UNL     1      -0.270  -1.636   0.000  1.00  0.00     0.257 C 
BRANCH  10  11
ATOM     11  O   UNL     1       1.129  -2.177   0.000  1.00  0.00    -0.490 OA
BRANCH  11  12
ATOM     12  C   UNL     1       2.297  -1.235   0.000  1.00  0.00     0.119 A 
ATOM     13  C   UNL     1       2.065   0.247   0.000  1.00  0.00     0.047 A 
ATOM     14  C   UNL     1       3.696  -1.775   0.000  1.00  0.00     0.047 A 
ATOM     15  C   UNL     1       3.233   1.189   0.000  1.00  0.00     0.019 A 
ATOM     16  C   UNL     1       4.864  -0.834   0.000  1.00  0.00     0.019 A 
ATOM     17  C   UNL     1       4.632   0.648   0.000  1.00  0.00     0.060 A 
BRANCH  17  18
ATOM     18  C   UNL     1       5.800   1.590   0.000  1.00  0.00     0.335 C 
ATOM     19  O   UNL     1       5.568   3.072   0.000  1.00  0.00    -0.246 OA
BRANCH  18  20
ATOM     20  O   UNL     1       7.199   1.050   0.000  1.00  0.00    -0.478 OA
ATOM     21  H   UNL     1       0.000   0.000   0.000  1.00  0.00     0.297 HD
ENDBRANCH  18  20
ENDBRANCH  17  18
ENDBRANCH  11  12
ENDBRANCH  10  11
ENDBRANCH   1  10
TORSDOF 10
