REMARK SMILES COc1ccc(O)c2c1C[C@@H](C)OC2=O
REMARK SMILES IDX 3 1 4 2 5 3 6 4 8 5 9 6 10 7 11 8 12 9 13 10 14 11 15 12
REMARK SMILES IDX 2 13 1 14 7 15
REMARK H PARENT 7 16
ROOT
ATOM      1  C   UNL     1      -1.841  -0.346   0.000  1.00  0.00     0.123 A 
ATOM      2  C   UNL     1      -2.465   1.018   0.000  1.00  0.00     0.050 A 
ATOM      3  C   UNL     1      -1.595   2.240   0.000  1.00  0.00     0.051 A 
ATOM      4  C   UNL     1      -0.101   2.098   0.000  1.00  0.00     0.130 A 
ATOM      5  C   UNL     1       0.522   0.733   0.000  1.00  0.00     0.108 A 
ATOM      6  C   UNL     1      -0.348  -0.489   0.000  1.00  0.00     0.016 A 
ATOM      7  C   UNL     1       0.275  -1.853   0.000  1.00  0.00     0.085 C 
ATOM      8  C   UNL     1       1.769  -1.996   0.000  1.00  0.00     0.178 C 
ATOM      9  C   UNL     1       2.392  -3.360   0.000  1.00  0.00     0.053 C 
ATOM     10  O   UNL     1       2.639  -0.774   0.000  1.00  0.00    -0.459 OA
ATOM     11  C   UNL     1       2.015   0.591   0.000  1.00  0.00     0.342 C 
ATOM     12  O   UNL     1       2.885   1.813   0.000  1.00  0.00    -0.246 OA
ENDROOT
BRANCH   1  13
ATOM     13  O   UNL     1      -2.711  -1.568   0.000  1.00  0.00    -0.496 OA
ATOM     14  C   UNL     1      -4.204  -1.426   0.000  1.00  0.00     0.278 C 
ENDBRANCH   1  13
BRANCH   4  15
ATOM     15  O   UNL     1       0.769   3.320   0.000  1.00  0.00    -0.507 OA
ATOM     16  H   UNL     1       0.000   0.000   0.000  1.00  0.00     0.293 HD
ENDBRANCH   4  15
TORSDOF 2
