REMARK SMILES CCc1c(C(=O)O)ccc2c1CC[C@H]1C(C)(C)CCC[C@]21C
REMARK SMILES IDX 3 1 4 2 8 3 9 4 10 5 11 6 12 7 13 8 14 9 15 10 16 11 17 12
REMARK SMILES IDX 18 13 19 14 20 15 21 16 22 17 2 18 1 19 5 20 6 21 7 22
REMARK H PARENT 7 23
ROOT
ATOM      1  C   UNL     1      -2.116  -0.726   0.000  1.00  0.00    -0.030 A 
ATOM      2  C   UNL     1      -2.895   0.556   0.000  1.00  0.00     0.063 A 
ATOM      3  C   UNL     1      -2.175   1.872   0.000  1.00  0.00     0.016 A 
ATOM      4  C   UNL     1      -0.675   1.906   0.000  1.00  0.00     0.005 A 
ATOM      5  C   UNL     1       0.104   0.624   0.000  1.00  0.00    -0.038 A 
ATOM      6  C   UNL     1      -0.616  -0.691   0.000  1.00  0.00    -0.040 A 
ATOM      7  C   UNL     1       0.163  -1.973   0.000  1.00  0.00     0.036 C 
ATOM      8  C   UNL     1       1.663  -1.939   0.000  1.00  0.00     0.010 C 
ATOM      9  C   UNL     1       2.383  -0.623   0.000  1.00  0.00     0.005 C 
ATOM     10  C   UNL     1       3.883  -0.589   0.000  1.00  0.00    -0.032 C 
ATOM     11  C   UNL     1       5.304  -1.069   0.000  1.00  0.00     0.011 C 
ATOM     12  C   UNL     1       3.656  -2.071   0.000  1.00  0.00     0.011 C 
ATOM     13  C   UNL     1       4.603   0.727   0.000  1.00  0.00     0.007 C 
ATOM     14  C   UNL     1       3.823   2.009   0.000  1.00  0.00     0.001 C 
ATOM     15  C   UNL     1       2.324   1.975   0.000  1.00  0.00     0.012 C 
ATOM     16  C   UNL     1       1.604   0.659   0.000  1.00  0.00    -0.004 C 
ATOM     17  C   UNL     1       0.824   1.940   0.000  1.00  0.00     0.017 C 
ENDROOT
BRANCH   1  18
ATOM     18  C   UNL     1      -2.836  -2.042   0.000  1.00  0.00     0.033 C 
ATOM     19  C   UNL     1      -4.335  -2.076   0.000  1.00  0.00     0.009 C 
ENDBRANCH   1  18
BRANCH   2  20
ATOM     20  C   UNL     1      -4.395   0.522   0.000  1.00  0.00     0.335 C 
ATOM     21  O   UNL     1      -5.115  -0.794   0.000  1.00  0.00    -0.246 OA
BRANCH  20  22
ATOM     22  O   UNL     1      -5.174   1.803   0.000  1.00  0.00    -0.478 OA
ATOM     23  H   UNL     1       0.000   0.000   0.000  1.00  0.00     0.297 HD
ENDBRANCH  20  22
ENDBRANCH   2  20
TORSDOF 3
