REMARK SMILES COc1cc(CCCO)cc2cc(-c3ccc4c(c3)OCO4)oc12
REMARK SMILES IDX 6 1 5 2 3 3 4 4 24 5 11 6 23 7 10 8 12 9 13 10 2 11 1 12
REMARK SMILES IDX 14 13 15 14 19 15 16 16 18 17 17 18 20 19 22 20 21 21 7 22
REMARK SMILES IDX 8 23 9 24
REMARK H PARENT 9 25
ROOT
ATOM      1  C   UNL     1       4.901   1.625   0.000  1.00  0.00     0.038 C 
ENDROOT
BRANCH   1   2
ATOM      2  C   UNL     1       3.636   0.818   0.000  1.00  0.00    -0.043 A 
ATOM      3  C   UNL     1       2.439  -1.488   0.000  1.00  0.00     0.162 A 
ATOM      4  C   UNL     1       3.703  -0.681   0.000  1.00  0.00     0.054 A 
ATOM      5  C   UNL     1       1.108  -0.796   0.000  1.00  0.00     0.176 A 
ATOM      6  C   UNL     1       1.041   0.702   0.000  1.00  0.00     0.025 A 
ATOM      7  O   UNL     1      -0.297  -1.323   0.000  1.00  0.00    -0.452 OA
ATOM      8  C   UNL     1       2.305   1.509   0.000  1.00  0.00     0.016 A 
ATOM      9  C   UNL     1      -0.405   1.102   0.000  1.00  0.00     0.060 A 
ATOM     10  C   UNL     1      -1.232  -0.150   0.000  1.00  0.00     0.135 A 
BRANCH   3  11
ATOM     11  O   UNL     1       2.506  -2.986   0.000  1.00  0.00    -0.493 OA
ATOM     12  C   UNL     1       3.837  -3.678   0.000  1.00  0.00     0.278 C 
ENDBRANCH   3  11
BRANCH  10  13
ATOM     13  C   UNL     1      -2.730  -0.217   0.000  1.00  0.00     0.021 A 
ATOM     14  C   UNL     1      -3.422  -1.548   0.000  1.00  0.00     0.016 A 
ATOM     15  C   UNL     1      -3.537   1.048   0.000  1.00  0.00     0.062 A 
ATOM     16  C   UNL     1      -4.920  -1.615   0.000  1.00  0.00     0.051 A 
ATOM     17  C   UNL     1      -5.036   0.981   0.000  1.00  0.00     0.166 A 
ATOM     18  C   UNL     1      -5.727  -0.350   0.000  1.00  0.00     0.165 A 
ATOM     19  O   UNL     1      -6.088   2.050   0.000  1.00  0.00    -0.454 OA
ATOM     20  O   UNL     1      -7.207  -0.104   0.000  1.00  0.00    -0.454 OA
ATOM     21  C   UNL     1      -7.430   1.379   0.000  1.00  0.00     0.468 C 
ENDBRANCH  10  13
ENDBRANCH   1   2
BRANCH   1  22
ATOM     22  C   UNL     1       6.232   0.933   0.000  1.00  0.00     0.033 C 
BRANCH  22  23
ATOM     23  C   UNL     1       7.496   1.741   0.000  1.00  0.00     0.156 C 
BRANCH  23  24
ATOM     24  O   UNL     1       8.827   1.049   0.000  1.00  0.00    -0.396 OA
ATOM     25  H   UNL     1       0.000   0.000   0.000  1.00  0.00     0.210 HD
ENDBRANCH  23  24
ENDBRANCH  22  23
ENDBRANCH   1  22
TORSDOF 6
