REMARK SMILES CCCCCCCCCCCCCCCCC
REMARK SMILES IDX 9 1 8 2 7 3 6 4 5 5 4 6 3 7 2 8 1 9 10 10 11 11 12 12 13 13
REMARK SMILES IDX 14 14 15 15 16 16 17 17
REMARK H PARENT
ROOT
ATOM      1  C   UNL     1       0.000  -0.353   0.000  1.00  0.00    -0.000 C 
ENDROOT
BRANCH   1   2
ATOM      2  C   UNL     1      -1.299   0.397   0.000  1.00  0.00    -0.000 C 
BRANCH   2   3
ATOM      3  C   UNL     1      -2.598  -0.353   0.000  1.00  0.00    -0.000 C 
BRANCH   3   4
ATOM      4  C   UNL     1      -3.897   0.397   0.000  1.00  0.00    -0.000 C 
BRANCH   4   5
ATOM      5  C   UNL     1      -5.196  -0.353   0.000  1.00  0.00    -0.000 C 
BRANCH   5   6
ATOM      6  C   UNL     1      -6.495   0.397   0.000  1.00  0.00    -0.000 C 
BRANCH   6   7
ATOM      7  C   UNL     1      -7.794  -0.353   0.000  1.00  0.00    -0.000 C 
BRANCH   7   8
ATOM      8  C   UNL     1      -9.093   0.397   0.000  1.00  0.00    -0.003 C 
ATOM      9  C   UNL     1     -10.392  -0.353   0.000  1.00  0.00     0.004 C 
ENDBRANCH   7   8
ENDBRANCH   6   7
ENDBRANCH   5   6
ENDBRANCH   4   5
ENDBRANCH   3   4
ENDBRANCH   2   3
ENDBRANCH   1   2
BRANCH   1  10
ATOM     10  C   UNL     1       1.299   0.397   0.000  1.00  0.00    -0.000 C 
BRANCH  10  11
ATOM     11  C   UNL     1       2.598  -0.353   0.000  1.00  0.00    -0.000 C 
BRANCH  11  12
ATOM     12  C   UNL     1       3.897   0.397   0.000  1.00  0.00    -0.000 C 
BRANCH  12  13
ATOM     13  C   UNL     1       5.196  -0.353   0.000  1.00  0.00    -0.000 C 
BRANCH  13  14
ATOM     14  C   UNL     1       6.495   0.397   0.000  1.00  0.00    -0.000 C 
BRANCH  14  15
ATOM     15  C   UNL     1       7.794  -0.353   0.000  1.00  0.00    -0.000 C 
BRANCH  15  16
ATOM     16  C   UNL     1       9.093   0.397   0.000  1.00  0.00    -0.003 C 
ATOM     17  C   UNL     1      10.392  -0.353   0.000  1.00  0.00     0.004 C 
ENDBRANCH  15  16
ENDBRANCH  14  15
ENDBRANCH  13  14
ENDBRANCH  12  13
ENDBRANCH  11  12
ENDBRANCH  10  11
ENDBRANCH   1  10
TORSDOF 14
