REMARK SMILES C=C(C)[C@@H]1CC[C@]2(C)[C@H](CC[C@@H]3[C@@H]([C@]4(C)CCC(=O)O4)CC[C@]32C)[C@@]1(C)CCC(=O)O
REMARK SMILES IDX 27 1 25 2 4 3 5 4 6 5 9 6 7 7 10 8 23 9 11 10 22 11 12 12
REMARK SMILES IDX 21 13 13 14 26 15 8 16 24 17 2 18 1 19 3 20 14 21 16 22
REMARK SMILES IDX 20 23 17 24 18 25 15 26 19 27 28 28 29 29 30 30 31 31
REMARK H PARENT 31 32
ROOT
ATOM      1  C   UNL     1      -3.889   0.419   0.000  1.00  0.00     0.019 C 
ENDROOT
BRANCH   1   2
ATOM      2  C   UNL     1      -2.457  -0.028   0.000  1.00  0.00    -0.022 C 
ATOM      3  C   UNL     1      -3.146  -1.360   0.000  1.00  0.00     0.020 C 
ATOM      4  C   UNL     1      -2.336  -2.623   0.000  1.00  0.00     0.009 C 
ATOM      5  C   UNL     1      -0.838  -2.554   0.000  1.00  0.00     0.008 C 
ATOM      6  C   UNL     1      -0.959   0.042   0.000  1.00  0.00     0.002 C 
ATOM      7  C   UNL     1      -0.149  -1.221   0.000  1.00  0.00    -0.024 C 
ATOM      8  C   UNL     1      -0.270   1.374   0.000  1.00  0.00     0.005 C 
ATOM      9  C   UNL     1       1.349  -1.151   0.000  1.00  0.00    -0.024 C 
ATOM     10  C   UNL     1       1.228   1.444   0.000  1.00  0.00     0.005 C 
ATOM     11  C   UNL     1       2.404  -2.218   0.000  1.00  0.00     0.008 C 
ATOM     12  C   UNL     1       2.038   0.181   0.000  1.00  0.00     0.002 C 
ATOM     13  C   UNL     1       3.744  -1.545   0.000  1.00  0.00     0.008 C 
ATOM     14  C   UNL     1       3.518  -0.062   0.000  1.00  0.00     0.037 C 
ATOM     15  C   UNL     1      -2.265   1.460   0.000  1.00  0.00     0.012 C 
ATOM     16  C   UNL     1      -1.648  -1.291   0.000  1.00  0.00     0.012 C 
ATOM     17  C   UNL     1       0.803  -2.549   0.000  1.00  0.00     0.012 C 
BRANCH   3  18
ATOM     18  C   UNL     1      -4.644  -1.430   0.000  1.00  0.00    -0.077 C 
ATOM     19  C   UNL     1      -5.333  -2.763   0.000  1.00  0.00     0.008 C 
ATOM     20  C   UNL     1      -5.454  -0.167   0.000  1.00  0.00     0.039 C 
ENDBRANCH   3  18
BRANCH  14  21
ATOM     21  C   UNL     1       4.585   0.992   0.000  1.00  0.00     0.113 C 
ATOM     22  C   UNL     1       5.409   2.245   0.000  1.00  0.00     0.060 C 
ATOM     23  O   UNL     1       5.522  -0.179   0.000  1.00  0.00    -0.459 OA
ATOM     24  C   UNL     1       6.856   1.848   0.000  1.00  0.00     0.127 C 
ATOM     25  C   UNL     1       6.926   0.350   0.000  1.00  0.00     0.306 C 
ATOM     26  C   UNL     1       3.425   1.943   0.000  1.00  0.00     0.057 C 
ATOM     27  O   UNL     1       8.179  -0.474   0.000  1.00  0.00    -0.252 OA
ENDBRANCH  14  21
ENDBRANCH   1   2
BRANCH   1  28
ATOM     28  C   UNL     1      -4.218   1.883   0.000  1.00  0.00     0.123 C 
BRANCH  28  29
ATOM     29  C   UNL     1      -5.650   2.330   0.000  1.00  0.00     0.303 C 
ATOM     30  O   UNL     1      -6.753   1.313   0.000  1.00  0.00    -0.252 OA
BRANCH  29  31
ATOM     31  O   UNL     1      -5.978   3.793   0.000  1.00  0.00    -0.481 OA
ATOM     32  H   UNL     1       0.000   0.000   0.000  1.00  0.00     0.296 HD
ENDBRANCH  29  31
ENDBRANCH  28  29
ENDBRANCH   1  28
TORSDOF 6
