REMARK SMILES C=CCc1cc(OC)c(OC)cc1O
REMARK SMILES IDX 4 1 5 2 6 3 9 4 12 5 13 6 3 7 2 8 1 9 14 10 7 12 8 13 10 14
REMARK SMILES IDX 11 15
REMARK H PARENT 14 11
ROOT
ATOM      1  C   UNL     1      -1.338  -0.286   0.000  1.00  0.00     0.002 A 
ATOM      2  C   UNL     1      -0.595   1.017   0.000  1.00  0.00     0.058 A 
ATOM      3  C   UNL     1       0.905   1.026   0.000  1.00  0.00     0.161 A 
ATOM      4  C   UNL     1       1.662  -0.269   0.000  1.00  0.00     0.164 A 
ATOM      5  C   UNL     1       0.919  -1.572   0.000  1.00  0.00     0.096 A 
ATOM      6  C   UNL     1      -0.581  -1.581   0.000  1.00  0.00     0.123 A 
ENDROOT
BRANCH   1   7
ATOM      7  C   UNL     1      -2.838  -0.294   0.000  1.00  0.00     0.066 C 
BRANCH   7   8
ATOM      8  C   UNL     1      -3.595   1.001   0.000  1.00  0.00    -0.030 C 
ATOM      9  C   UNL     1      -5.095   0.992   0.000  1.00  0.00     0.004 C 
ENDBRANCH   7   8
ENDBRANCH   1   7
BRANCH   6  10
ATOM     10  O   UNL     1      -1.323  -2.884   0.000  1.00  0.00    -0.508 OA
ATOM     11  H   UNL     1       0.000   0.000   0.000  1.00  0.00     0.293 HD
ENDBRANCH   6  10
BRANCH   3  12
ATOM     12  O   UNL     1       1.648   2.329   0.000  1.00  0.00    -0.493 OA
ATOM     13  C   UNL     1       3.148   2.337   0.000  1.00  0.00     0.278 C 
ENDBRANCH   3  12
BRANCH   4  14
ATOM     14  O   UNL     1       3.162  -0.261   0.000  1.00  0.00    -0.493 OA
ATOM     15  C   UNL     1       3.919  -1.556   0.000  1.00  0.00     0.278 C 
ENDBRANCH   4  14
TORSDOF 5
