REMARK SMILES OC[C@@H](O)c1ccccc1
REMARK SMILES IDX 2 1 1 2 3 4 4 5 5 7 6 8 10 9 7 10 9 11 8 12
REMARK H PARENT 1 3 4 6
ROOT
ATOM      1  C   UNL     1      -2.311   0.870   0.000  1.00  0.00     0.192 C 
ENDROOT
BRANCH   1   2
ATOM      2  O   UNL     1      -3.798   0.671   0.000  1.00  0.00    -0.393 OA
ATOM      3  H   UNL     1       0.000   0.000   0.000  1.00  0.00     0.210 HD
ENDBRANCH   1   2
BRANCH   1   4
ATOM      4  C   UNL     1      -1.395  -0.318   0.000  1.00  0.00     0.170 C 
BRANCH   4   5
ATOM      5  O   UNL     1      -1.966  -1.705   0.000  1.00  0.00    -0.386 OA
ATOM      6  H   UNL     1       0.000   0.000   0.000  1.00  0.00     0.211 HD
ENDBRANCH   4   5
BRANCH   4   7
ATOM      7  C   UNL     1       0.092  -0.119   0.000  1.00  0.00    -0.017 A 
ATOM      8  C   UNL     1       0.662   1.268   0.000  1.00  0.00     0.006 A 
ATOM      9  C   UNL     1       1.008  -1.307   0.000  1.00  0.00     0.006 A 
ATOM     10  C   UNL     1       2.149   1.468   0.000  1.00  0.00     0.000 A 
ATOM     11  C   UNL     1       2.494  -1.107   0.000  1.00  0.00     0.000 A 
ATOM     12  C   UNL     1       3.065   0.280   0.000  1.00  0.00     0.000 A 
ENDBRANCH   4   7
ENDBRANCH   1   4
TORSDOF 4
