REMARK SMILES COC(=O)CC1C(C)(C)[C@H](OC(C)=O)[C@@H]2C[C@H]3C4=CC(=O)O[C@@H](c5ccoc5)[C@]4(C)CC[C@@H]3[C@@]1(C)C2=O
REMARK SMILES IDX 6 1 7 2 8 3 9 4 10 5 15 6 16 7 17 8 18 9 19 10 20 11 21 12
REMARK SMILES IDX 22 13 23 14 29 15 30 16 31 17 32 18 33 19 34 20 35 21 36 22
REMARK SMILES IDX 37 23 5 24 3 25 4 26 2 27 1 28 11 29 12 30 13 31 14 32 24 33
REMARK SMILES IDX 28 34 25 35 27 36 26 37
REMARK H PARENT
ROOT
ATOM      1  C   UNL     1       2.941  -1.342   0.000  1.00  0.00     0.023 C 
ATOM      2  C   UNL     1       4.040  -0.322   0.000  1.00  0.00     0.007 C 
ATOM      3  C   UNL     1       4.855  -1.581   0.000  1.00  0.00     0.015 C 
ATOM      4  C   UNL     1       5.422   0.262   0.000  1.00  0.00     0.015 C 
ATOM      5  C   UNL     1       3.705   1.141   0.000  1.00  0.00     0.193 C 
ATOM      6  C   UNL     1       2.272   1.582   0.000  1.00  0.00     0.099 C 
ATOM      7  C   UNL     1       0.838   2.023   0.000  1.00  0.00     0.023 C 
ATOM      8  C   UNL     1      -0.261   1.002   0.000  1.00  0.00     0.021 C 
ATOM      9  C   UNL     1      -1.694   1.444   0.000  1.00  0.00    -0.050 C 
ATOM     10  C   UNL     1      -2.029   2.906   0.000  1.00  0.00     0.093 C 
ATOM     11  C   UNL     1      -3.462   3.347   0.000  1.00  0.00     0.331 C 
ATOM     12  O   UNL     1      -3.797   4.810   0.000  1.00  0.00    -0.247 OA
ATOM     13  O   UNL     1      -4.561   2.326   0.000  1.00  0.00    -0.453 OA
ATOM     14  C   UNL     1      -4.227   0.864   0.000  1.00  0.00     0.220 C 
ATOM     15  C   UNL     1      -2.793   0.423   0.000  1.00  0.00     0.031 C 
ATOM     16  C   UNL     1      -3.892  -0.598   0.000  1.00  0.00     0.020 C 
ATOM     17  C   UNL     1      -2.459  -1.039   0.000  1.00  0.00     0.016 C 
ATOM     18  C   UNL     1      -1.025  -1.481   0.000  1.00  0.00     0.006 C 
ATOM     19  C   UNL     1       0.074  -0.460   0.000  1.00  0.00     0.010 C 
ATOM     20  C   UNL     1       1.508  -0.901   0.000  1.00  0.00     0.034 C 
ATOM     21  C   UNL     1       1.842  -2.363   0.000  1.00  0.00     0.020 C 
ATOM     22  C   UNL     1       2.607   0.120   0.000  1.00  0.00     0.146 C 
ATOM     23  O   UNL     1       3.402   0.077   0.000  1.00  0.00    -0.299 OA
ENDROOT
BRANCH   1  24
ATOM     24  C   UNL     1       3.276  -2.805   0.000  1.00  0.00     0.128 C 
BRANCH  24  25
ATOM     25  C   UNL     1       2.177  -3.825   0.000  1.00  0.00     0.305 C 
ATOM     26  O   UNL     1       0.743  -3.384   0.000  1.00  0.00    -0.252 OA
BRANCH  25  27
ATOM     27  O   UNL     1       2.511  -5.288   0.000  1.00  0.00    -0.469 OA
ATOM     28  C   UNL     1       1.412  -6.309   0.000  1.00  0.00     0.282 C 
ENDBRANCH  25  27
ENDBRANCH  24  25
ENDBRANCH   1  24
BRANCH   5  29
ATOM     29  O   UNL     1       4.804   2.162   0.000  1.00  0.00    -0.461 OA
BRANCH  29  30
ATOM     30  C   UNL     1       4.470   3.624   0.000  1.00  0.00     0.302 C 
ATOM     31  C   UNL     1       5.569   4.645   0.000  1.00  0.00     0.139 C 
ATOM     32  O   UNL     1       3.036   4.065   0.000  1.00  0.00    -0.253 OA
ENDBRANCH  29  30
ENDBRANCH   5  29
BRANCH  14  33
ATOM     33  C   UNL     1      -5.326  -0.157   0.000  1.00  0.00     0.032 A 
ATOM     34  C   UNL     1      -5.146  -1.646   0.000  1.00  0.00     0.202 A 
ATOM     35  C   UNL     1      -6.798   0.133   0.000  1.00  0.00     0.049 A 
ATOM     36  O   UNL     1      -6.507  -2.277   0.000  1.00  0.00    -0.472 OA
ATOM     37  C   UNL     1      -7.528  -1.178   0.000  1.00  0.00     0.195 A 
ENDBRANCH  14  33
TORSDOF 6
