REMARK SMILES C=C[C@]1(CO)CC[C@@H](C(C)(C)O)C[C@H]1C(=C)C
REMARK SMILES IDX 3 1 6 2 7 3 8 4 13 5 14 6 2 7 1 8 4 9 5 10 15 12 16 13 17 14
REMARK SMILES IDX 9 15 10 16 11 17 12 18
REMARK H PARENT 5 11 12 19
ROOT
ATOM      1  C   UNL     1       1.213  -0.615   0.000  1.00  0.00     0.018 C 
ATOM      2  C   UNL     1       0.269  -1.781   0.000  1.00  0.00     0.014 C 
ATOM      3  C   UNL     1      -1.212  -1.546   0.000  1.00  0.00     0.007 C 
ATOM      4  C   UNL     1      -1.750  -0.146   0.000  1.00  0.00     0.021 C 
ATOM      5  C   UNL     1      -0.806   1.020   0.000  1.00  0.00     0.015 C 
ATOM      6  C   UNL     1       0.676   0.785   0.000  1.00  0.00     0.027 C 
ENDROOT
BRANCH   1   7
ATOM      7  C   UNL     1       2.499   0.157   0.000  1.00  0.00    -0.025 C 
ATOM      8  C   UNL     1       3.811  -0.570   0.000  1.00  0.00     0.005 C 
ENDBRANCH   1   7
BRANCH   1   9
ATOM      9  C   UNL     1       2.197  -1.747   0.000  1.00  0.00     0.167 C 
BRANCH   9  10
ATOM     10  O   UNL     1       1.709  -3.166   0.000  1.00  0.00    -0.395 OA
ATOM     11  H   UNL     1       0.000   0.000   0.000  1.00  0.00     0.210 HD
ENDBRANCH   9  10
ENDBRANCH   1   9
BRANCH   6  12
ATOM     12  C   UNL     1       1.620   1.951   0.000  1.00  0.00    -0.076 C 
ATOM     13  C   UNL     1       1.082   3.351   0.000  1.00  0.00     0.008 C 
ATOM     14  C   UNL     1       3.101   1.716   0.000  1.00  0.00     0.039 C 
ENDBRANCH   6  12
BRANCH   4  15
ATOM     15  C   UNL     1      -3.232   0.089   0.000  1.00  0.00     0.062 C 
ATOM     16  C   UNL     1      -3.466  -1.393   0.000  1.00  0.00     0.042 C 
ATOM     17  C   UNL     1      -2.997   1.571   0.000  1.00  0.00     0.042 C 
BRANCH  15  18
ATOM     18  O   UNL     1      -4.713   0.324   0.000  1.00  0.00    -0.390 OA
ATOM     19  H   UNL     1       0.000   0.000   0.000  1.00  0.00     0.211 HD
ENDBRANCH  15  18
ENDBRANCH   4  15
TORSDOF 6
