REMARK SMILES CC(C)=C[C@H]1C[C@](C)(C=Cc2ccc3cc[nH]c3c2)c2cc3[nH]ccc3cc21
REMARK SMILES IDX 5 1 6 2 7 3 8 4 20 5 21 6 22 7 26 8 25 9 24 10 23 11 27 12
REMARK SMILES IDX 28 13 4 15 2 16 1 17 3 18 9 19 10 20 11 21 12 22 19 23 13 24
REMARK SMILES IDX 18 25 14 26 17 27 15 28 16 29
REMARK H PARENT 23 14 17 30
ROOT
ATOM      1  C   UNL     1      -1.661  -1.490   0.000  1.00  0.00     0.043 C 
ATOM      2  C   UNL     1      -0.496  -0.546   0.000  1.00  0.00     0.028 C 
ATOM      3  C   UNL     1      -1.033   0.854   0.000  1.00  0.00     0.012 C 
ATOM      4  C   UNL     1      -1.267   2.336   0.000  1.00  0.00     0.021 C 
ATOM      5  C   UNL     1      -2.531   0.776   0.000  1.00  0.00    -0.032 A 
ATOM      6  C   UNL     1      -3.591   1.837   0.000  1.00  0.00     0.031 A 
ATOM      7  C   UNL     1      -5.040   1.449   0.000  1.00  0.00     0.046 A 
ATOM      8  C   UNL     1      -5.429  -0.000   0.000  1.00  0.00    -0.000 A 
ATOM      9  C   UNL     1      -6.927  -0.078   0.000  1.00  0.00     0.028 A 
ATOM     10  C   UNL     1      -7.464   1.322   0.000  1.00  0.00     0.083 A 
ATOM     11  N   UNL     1      -6.298   2.266   0.000  1.00  0.00    -0.361 N 
ATOM     12  C   UNL     1      -4.368  -1.061   0.000  1.00  0.00     0.015 A 
ATOM     13  C   UNL     1      -2.919  -0.673   0.000  1.00  0.00    -0.036 A 
ATOM     14  H   UNL     1       0.000   0.000   0.000  1.00  0.00     0.166 HD
ENDROOT
BRANCH   1  15
ATOM     15  C   UNL     1      -1.583  -2.988   0.000  1.00  0.00    -0.020 C 
BRANCH  15  16
ATOM     16  C   UNL     1      -0.247  -3.670   0.000  1.00  0.00    -0.080 C 
ATOM     17  C   UNL     1      -0.169  -5.167   0.000  1.00  0.00     0.039 C 
ATOM     18  C   UNL     1       1.011  -2.853   0.000  1.00  0.00     0.039 C 
ENDBRANCH  15  16
ENDBRANCH   1  15
BRANCH   3  19
ATOM     19  C   UNL     1       0.416   1.242   0.000  1.00  0.00    -0.015 C 
BRANCH  19  20
ATOM     20  C   UNL     1       1.477   0.181   0.000  1.00  0.00     0.005 C 
BRANCH  20  21
ATOM     21  C   UNL     1       2.925   0.569   0.000  1.00  0.00    -0.024 A 
ATOM     22  C   UNL     1       3.314   2.018   0.000  1.00  0.00     0.009 A 
ATOM     23  C   UNL     1       3.986  -0.492   0.000  1.00  0.00     0.034 A 
ATOM     24  C   UNL     1       4.763   2.406   0.000  1.00  0.00     0.011 A 
ATOM     25  C   UNL     1       5.435  -0.104   0.000  1.00  0.00     0.046 A 
ATOM     26  C   UNL     1       5.824   1.345   0.000  1.00  0.00    -0.001 A 
ATOM     27  N   UNL     1       6.693  -0.921   0.000  1.00  0.00    -0.361 N 
ATOM     28  C   UNL     1       7.321   1.423   0.000  1.00  0.00     0.028 A 
ATOM     29  C   UNL     1       7.859   0.022   0.000  1.00  0.00     0.083 A 
ATOM     30  H   UNL     1       0.000   0.000   0.000  1.00  0.00     0.166 HD
ENDBRANCH  20  21
ENDBRANCH  19  20
ENDBRANCH   3  19
TORSDOF 5
