REMARK SMILES CC(=O)O[C@@H]1C[C@H]2C(C)(C)C(=O)C=C[C@]2(C)[C@H]2CC[C@@]3(C)[C@H](c4ccoc4)OC(=O)[C@H]4O[C@]43[C@@]21C
REMARK SMILES IDX 4 1 2 2 1 3 3 4 5 5 6 6 34 7 7 8 33 9 17 10 8 11 15 12 32 13
REMARK SMILES IDX 20 14 31 15 18 16 11 17 14 18 19 19 22 20 29 21 13 22 28 23
REMARK SMILES IDX 35 24 9 25 10 26 16 27 21 28 12 29 30 30 23 31 27 32 24 33
REMARK SMILES IDX 26 34 25 35
REMARK H PARENT
ROOT
ATOM      1  O   UNL     1      -0.959  -2.880   0.000  1.00  0.00    -0.462 OA
ENDROOT
BRANCH   1   2
ATOM      2  C   UNL     1      -2.040  -3.920   0.000  1.00  0.00     0.302 C 
ATOM      3  C   UNL     1      -1.680  -5.376   0.000  1.00  0.00     0.139 C 
ATOM      4  O   UNL     1      -3.481  -3.504   0.000  1.00  0.00    -0.253 OA
ENDBRANCH   1   2
BRANCH   1   5
ATOM      5  C   UNL     1      -1.319  -1.424   0.000  1.00  0.00     0.186 C 
ATOM      6  C   UNL     1      -2.761  -1.008   0.000  1.00  0.00     0.051 C 
ATOM      7  C   UNL     1      -0.238  -0.384   0.000  1.00  0.00     0.041 C 
ATOM      8  C   UNL     1      -3.121   0.448   0.000  1.00  0.00     0.016 C 
ATOM      9  C   UNL     1       1.203  -0.800   0.000  1.00  0.00     0.125 C 
ATOM     10  C   UNL     1      -0.599   1.072   0.000  1.00  0.00     0.012 C 
ATOM     11  C   UNL     1      -4.562   0.865   0.000  1.00  0.00     0.031 C 
ATOM     12  C   UNL     1      -2.040   1.488   0.000  1.00  0.00    -0.007 C 
ATOM     13  O   UNL     1       0.122  -1.840   0.000  1.00  0.00    -0.352 OA
ATOM     14  C   UNL     1       2.284   0.240   0.000  1.00  0.00     0.042 C 
ATOM     15  C   UNL     1       1.563  -2.256   0.000  1.00  0.00     0.262 C 
ATOM     16  C   UNL     1       0.482   2.112   0.000  1.00  0.00     0.006 C 
ATOM     17  C   UNL     1      -4.922   2.321   0.000  1.00  0.00     0.161 C 
ATOM     18  C   UNL     1      -2.400   2.945   0.000  1.00  0.00    -0.016 C 
ATOM     19  C   UNL     1       1.923   1.696   0.000  1.00  0.00     0.014 C 
ATOM     20  C   UNL     1       3.725  -0.176   0.000  1.00  0.00     0.219 C 
ATOM     21  C   UNL     1       3.004  -2.672   0.000  1.00  0.00     0.339 C 
ATOM     22  C   UNL     1      -3.841   3.361   0.000  1.00  0.00     0.044 C 
ATOM     23  O   UNL     1       4.085  -1.632   0.000  1.00  0.00    -0.455 OA
ATOM     24  C   UNL     1      -1.680   0.032   0.000  1.00  0.00     0.019 C 
ATOM     25  C   UNL     1      -6.058   0.763   0.000  1.00  0.00     0.020 C 
ATOM     26  C   UNL     1      -4.721  -0.627   0.000  1.00  0.00     0.020 C 
ATOM     27  C   UNL     1      -0.959   2.528   0.000  1.00  0.00     0.016 C 
ATOM     28  C   UNL     1       3.365   1.280   0.000  1.00  0.00     0.019 C 
ATOM     29  O   UNL     1      -6.363   2.737   0.000  1.00  0.00    -0.294 OA
ATOM     30  O   UNL     1       3.364  -4.128   0.000  1.00  0.00    -0.249 OA
BRANCH  20  31
ATOM     31  C   UNL     1       4.806   0.864   0.000  1.00  0.00     0.031 A 
ATOM     32  C   UNL     1       4.600   2.349   0.000  1.00  0.00     0.202 A 
ATOM     33  C   UNL     1       6.282   0.600   0.000  1.00  0.00     0.049 A 
ATOM     34  O   UNL     1       5.949   3.005   0.000  1.00  0.00    -0.472 OA
ATOM     35  C   UNL     1       6.989   1.923   0.000  1.00  0.00     0.195 A 
ENDBRANCH  20  31
ENDBRANCH   1   5
TORSDOF 3
