REMARK SMILES CC(=O)Oc1cc(C)ccc1C(C)C
REMARK SMILES IDX 5 1 6 2 7 3 8 4 9 5 10 6 11 7 4 8 2 9 1 10 3 11 12 12 13 13
REMARK SMILES IDX 14 14
REMARK H PARENT
ROOT
ATOM      1  C   UNL     1      -0.186   0.000   0.000  1.00  0.00     0.134 A 
ATOM      2  C   UNL     1      -0.186   1.500   0.000  1.00  0.00     0.051 A 
ATOM      3  C   UNL     1       1.113   2.250   0.000  1.00  0.00    -0.047 A 
ATOM      4  C   UNL     1       1.113   3.750   0.000  1.00  0.00     0.044 C 
ATOM      5  C   UNL     1       2.413   1.500   0.000  1.00  0.00     0.004 A 
ATOM      6  C   UNL     1       2.413  -0.000   0.000  1.00  0.00     0.008 A 
ATOM      7  C   UNL     1       1.113  -0.750   0.000  1.00  0.00    -0.003 A 
ENDROOT
BRANCH   1   8
ATOM      8  O   UNL     1      -1.485  -0.750   0.000  1.00  0.00    -0.426 OA
BRANCH   8   9
ATOM      9  C   UNL     1      -2.784   0.000   0.000  1.00  0.00     0.308 C 
ATOM     10  C   UNL     1      -4.083  -0.750   0.000  1.00  0.00     0.139 C 
ATOM     11  O   UNL     1      -2.784   1.500   0.000  1.00  0.00    -0.252 OA
ENDBRANCH   8   9
ENDBRANCH   1   8
BRANCH   7  12
ATOM     12  C   UNL     1       1.113  -2.250   0.000  1.00  0.00     0.017 C 
ATOM     13  C   UNL     1      -0.186  -3.000   0.000  1.00  0.00     0.012 C 
ATOM     14  C   UNL     1       2.413  -3.000   0.000  1.00  0.00     0.012 C 
ENDBRANCH   7  12
TORSDOF 3
