REMARK SMILES COc1cccc2c1-c1c3c(cc4ccnc(c14)C2=O)OCO3
REMARK SMILES IDX 3 1 4 2 5 3 6 4 7 5 8 6 9 7 10 8 23 9 22 10 21 11 11 12
REMARK SMILES IDX 12 13 13 14 14 15 15 16 16 17 17 18 18 19 19 20 20 21 2 22
REMARK SMILES IDX 1 23
REMARK H PARENT
ROOT
ATOM      1  C   UNL     1      -2.213  -1.105   0.000  1.00  0.00     0.127 A 
ATOM      2  C   UNL     1      -2.893  -2.442   0.000  1.00  0.00     0.047 A 
ATOM      3  C   UNL     1      -2.076  -3.700   0.000  1.00  0.00     0.005 A 
ATOM      4  C   UNL     1      -0.578  -3.621   0.000  1.00  0.00     0.013 A 
ATOM      5  C   UNL     1       0.102  -2.284   0.000  1.00  0.00     0.036 A 
ATOM      6  C   UNL     1      -0.715  -1.027   0.000  1.00  0.00     0.040 A 
ATOM      7  C   UNL     1      -0.034   0.310   0.000  1.00  0.00     0.042 A 
ATOM      8  C   UNL     1      -0.851   1.568   0.000  1.00  0.00     0.174 A 
ATOM      9  O   UNL     1      -2.333   1.802   0.000  1.00  0.00    -0.453 OA
ATOM     10  C   UNL     1      -2.568   3.284   0.000  1.00  0.00     0.468 C 
ATOM     11  O   UNL     1      -1.231   3.965   0.000  1.00  0.00    -0.454 OA
ATOM     12  C   UNL     1      -0.170   2.905   0.000  1.00  0.00     0.167 A 
ATOM     13  C   UNL     1       1.327   2.983   0.000  1.00  0.00     0.059 A 
ATOM     14  C   UNL     1       2.145   1.726   0.000  1.00  0.00    -0.010 A 
ATOM     15  C   UNL     1       3.643   1.804   0.000  1.00  0.00     0.029 A 
ATOM     16  C   UNL     1       4.460   0.546   0.000  1.00  0.00     0.112 A 
ATOM     17  N   UNL     1       3.779  -0.790   0.000  1.00  0.00    -0.252 NA
ATOM     18  C   UNL     1       2.281  -0.869   0.000  1.00  0.00     0.119 A 
ATOM     19  C   UNL     1       1.464   0.389   0.000  1.00  0.00     0.023 A 
ATOM     20  C   UNL     1       1.601  -2.206   0.000  1.00  0.00     0.212 C 
ATOM     21  O   UNL     1       2.418  -3.463   0.000  1.00  0.00    -0.287 OA
ENDROOT
BRANCH   1  22
ATOM     22  O   UNL     1      -3.030   0.152   0.000  1.00  0.00    -0.496 OA
ATOM     23  C   UNL     1      -4.528   0.074   0.000  1.00  0.00     0.278 C 
ENDBRANCH   1  22
TORSDOF 1
