REMARK SMILES O=C(/C=C/c1ccc(O)c(O)c1)O[C@@H]1C[C@](O)(C(=O)O)C[C@@H](O)[C@H]1O
REMARK SMILES IDX 1 1 2 2 3 3 4 4 5 5 6 6 12 7 7 8 10 9 8 10 11 11 9 13 13 15
REMARK SMILES IDX 14 16 15 17 24 18 16 19 22 20 21 21 25 22 17 24 18 26 19 27
REMARK SMILES IDX 20 28 23 30
REMARK H PARENT 11 12 9 14 25 23 17 25 20 29 23 31
ROOT
ATOM      1  O   UNL     1      -0.082  -1.790   0.000  1.00  0.00    -0.247 OA
ATOM      2  C   UNL     1       0.287  -0.336   0.000  1.00  0.00     0.331 C 
ENDROOT
BRANCH   2   3
ATOM      3  C   UNL     1       1.731   0.072   0.000  1.00  0.00     0.094 C 
BRANCH   3   4
ATOM      4  C   UNL     1       2.805  -0.974   0.000  1.00  0.00     0.016 C 
BRANCH   4   5
ATOM      5  C   UNL     1       4.249  -0.566   0.000  1.00  0.00    -0.021 A 
ATOM      6  C   UNL     1       5.324  -1.613   0.000  1.00  0.00     0.012 A 
ATOM      7  C   UNL     1       4.618   0.888   0.000  1.00  0.00     0.058 A 
ATOM      8  C   UNL     1       6.767  -1.205   0.000  1.00  0.00     0.051 A 
ATOM      9  C   UNL     1       6.061   1.295   0.000  1.00  0.00     0.157 A 
ATOM     10  C   UNL     1       7.136   0.249   0.000  1.00  0.00     0.157 A 
BRANCH   9  11
ATOM     11  O   UNL     1       6.430   2.749   0.000  1.00  0.00    -0.504 OA
ATOM     12  H   UNL     1       0.000   0.000   0.000  1.00  0.00     0.293 HD
ENDBRANCH   9  11
BRANCH  10  13
ATOM     13  O   UNL     1       8.580   0.657   0.000  1.00  0.00    -0.504 OA
ATOM     14  H   UNL     1       0.000   0.000   0.000  1.00  0.00     0.293 HD
ENDBRANCH  10  13
ENDBRANCH   4   5
ENDBRANCH   3   4
ENDBRANCH   2   3
BRANCH   2  15
ATOM     15  O   UNL     1      -0.788   0.711   0.000  1.00  0.00    -0.456 OA
BRANCH  15  16
ATOM     16  C   UNL     1      -2.231   0.303   0.000  1.00  0.00     0.211 C 
ATOM     17  C   UNL     1      -3.306   1.349   0.000  1.00  0.00     0.095 C 
ATOM     18  C   UNL     1      -2.600  -1.151   0.000  1.00  0.00     0.184 C 
ATOM     19  C   UNL     1      -4.750   0.941   0.000  1.00  0.00     0.167 C 
ATOM     20  C   UNL     1      -4.043  -1.559   0.000  1.00  0.00     0.150 C 
ATOM     21  C   UNL     1      -5.118  -0.513   0.000  1.00  0.00     0.082 C 
BRANCH  18  22
ATOM     22  O   UNL     1      -1.525  -2.197   0.000  1.00  0.00    -0.387 OA
ATOM     23  H   UNL     1       0.000   0.000   0.000  1.00  0.00     0.211 HD
ENDBRANCH  18  22
BRANCH  19  24
ATOM     24  O   UNL     1      -4.901   2.434   0.000  1.00  0.00    -0.378 OA
ATOM     25  H   UNL     1       0.000   0.000   0.000  1.00  0.00     0.212 HD
ENDBRANCH  19  24
BRANCH  19  26
ATOM     26  C   UNL     1      -6.246   1.052   0.000  1.00  0.00     0.335 C 
ATOM     27  O   UNL     1      -7.089  -0.188   0.000  1.00  0.00    -0.249 OA
BRANCH  26  28
ATOM     28  O   UNL     1      -6.898   2.403   0.000  1.00  0.00    -0.479 OA
ATOM     29  H   UNL     1       0.000   0.000   0.000  1.00  0.00     0.296 HD
ENDBRANCH  26  28
ENDBRANCH  19  26
BRANCH  20  30
ATOM     30  O   UNL     1      -4.412  -3.013   0.000  1.00  0.00    -0.390 OA
ATOM     31  H   UNL     1       0.000   0.000   0.000  1.00  0.00     0.211 HD
ENDBRANCH  20  30
ENDBRANCH  15  16
ENDBRANCH   2  15
TORSDOF 12
