REMARK SMILES CCCCCCCCC1CCCC1
REMARK SMILES IDX 5 1 4 2 3 3 2 4 1 5 6 6 7 7 8 8 9 9 10 10 13 11 11 12 12 13
REMARK H PARENT
ROOT
ATOM      1  C   UNL     1      -2.017   0.169   0.000  1.00  0.00     0.000 C 
ENDROOT
BRANCH   1   2
ATOM      2  C   UNL     1      -3.378  -0.461   0.000  1.00  0.00    -0.000 C 
BRANCH   2   3
ATOM      3  C   UNL     1      -4.604   0.404   0.000  1.00  0.00    -0.000 C 
BRANCH   3   4
ATOM      4  C   UNL     1      -5.966  -0.226   0.000  1.00  0.00    -0.003 C 
ATOM      5  C   UNL     1      -7.192   0.639   0.000  1.00  0.00     0.004 C 
ENDBRANCH   3   4
ENDBRANCH   2   3
ENDBRANCH   1   2
BRANCH   1   6
ATOM      6  C   UNL     1      -0.791  -0.696   0.000  1.00  0.00     0.000 C 
BRANCH   6   7
ATOM      7  C   UNL     1       0.571  -0.067   0.000  1.00  0.00     0.000 C 
BRANCH   7   8
ATOM      8  C   UNL     1       1.796  -0.931   0.000  1.00  0.00     0.003 C 
BRANCH   8   9
ATOM      9  C   UNL     1       3.158  -0.301   0.000  1.00  0.00    -0.011 C 
ATOM     10  C   UNL     1       4.468  -1.033   0.000  1.00  0.00     0.003 C 
ATOM     11  C   UNL     1       3.449   1.170   0.000  1.00  0.00     0.003 C 
ATOM     12  C   UNL     1       5.568  -0.014   0.000  1.00  0.00     0.000 C 
ATOM     13  C   UNL     1       4.939   1.348   0.000  1.00  0.00     0.000 C 
ENDBRANCH   8   9
ENDBRANCH   7   8
ENDBRANCH   6   7
ENDBRANCH   1   6
TORSDOF 7
