REMARK SMILES Cc1ccc(C)c2c1C=C(C(C)(C)O)C(=O)C2=O
REMARK SMILES IDX 11 1 12 2 13 3 10 4 2 5 3 6 8 7 4 8 7 9 9 10 5 11 17 12
REMARK SMILES IDX 15 13 1 14 6 15 18 16 16 17 14 18
REMARK H PARENT 14 19
ROOT
ATOM      1  C   UNL     1       3.080  -0.570   0.000  1.00  0.00     0.088 C 
ATOM      2  C   UNL     1       3.454   0.882   0.000  1.00  0.00     0.047 C 
ATOM      3  C   UNL     1       2.706  -2.023   0.000  1.00  0.00     0.047 C 
ENDROOT
BRANCH   1   4
ATOM      4  C   UNL     1       1.628  -0.196   0.000  1.00  0.00     0.035 C 
ATOM      5  C   UNL     1      -1.926  -1.963   0.000  1.00  0.00    -0.043 A 
ATOM      6  C   UNL     1      -3.378  -1.589   0.000  1.00  0.00     0.004 A 
ATOM      7  C   UNL     1      -0.875  -0.892   0.000  1.00  0.00    -0.011 A 
ATOM      8  C   UNL     1      -3.780  -0.144   0.000  1.00  0.00     0.004 A 
ATOM      9  C   UNL     1      -1.278   0.553   0.000  1.00  0.00     0.036 A 
ATOM     10  C   UNL     1       0.577  -1.267   0.000  1.00  0.00     0.020 C 
ATOM     11  C   UNL     1      -2.730   0.927   0.000  1.00  0.00    -0.039 A 
ATOM     12  C   UNL     1      -0.227   1.624   0.000  1.00  0.00     0.234 C 
ATOM     13  C   UNL     1       1.226   1.249   0.000  1.00  0.00     0.232 C 
ATOM     14  C   UNL     1      -1.524  -3.408   0.000  1.00  0.00     0.045 C 
ATOM     15  C   UNL     1      -3.132   2.372   0.000  1.00  0.00     0.045 C 
ATOM     16  O   UNL     1      -0.629   3.069   0.000  1.00  0.00    -0.285 OA
ATOM     17  O   UNL     1       2.276   2.320   0.000  1.00  0.00    -0.285 OA
ENDBRANCH   1   4
BRANCH   1  18
ATOM     18  O   UNL     1       4.533  -0.944   0.000  1.00  0.00    -0.386 OA
ATOM     19  H   UNL     1       0.000   0.000   0.000  1.00  0.00     0.211 HD
ENDBRANCH   1  18
TORSDOF 2
