REMARK SMILES COc1cc([C@H]2OC[C@H]3[C@@H]2CO[C@@H]3c2ccc(O)c(OC)c2)ccc1O
REMARK SMILES IDX 6 1 7 2 8 3 9 4 10 5 11 6 12 7 13 8 5 9 3 10 4 11 25 12
REMARK SMILES IDX 24 13 23 14 2 15 1 16 26 17 14 19 15 20 22 21 16 22 19 23
REMARK SMILES IDX 17 24 20 25 21 26 18 27
REMARK H PARENT 26 18 18 28
ROOT
ATOM      1  C   UNL     1       1.660  -0.147   0.000  1.00  0.00     0.154 C 
ATOM      2  O   UNL     1       1.044  -1.514   0.000  1.00  0.00    -0.373 OA
ATOM      3  C   UNL     1      -0.447  -1.352   0.000  1.00  0.00     0.168 C 
ATOM      4  C   UNL     1      -0.753   0.117   0.000  1.00  0.00     0.057 C 
ATOM      5  C   UNL     1       0.549   0.862   0.000  1.00  0.00     0.057 C 
ATOM      6  C   UNL     1       0.243   2.330   0.000  1.00  0.00     0.168 C 
ATOM      7  O   UNL     1      -1.248   2.493   0.000  1.00  0.00    -0.373 OA
ATOM      8  C   UNL     1      -1.864   1.125   0.000  1.00  0.00     0.154 C 
ENDROOT
BRANCH   1   9
ATOM      9  C   UNL     1       3.128   0.160   0.000  1.00  0.00    -0.015 A 
ATOM     10  C   UNL     1       5.596  -0.653   0.000  1.00  0.00     0.160 A 
ATOM     11  C   UNL     1       4.128  -0.959   0.000  1.00  0.00     0.056 A 
ATOM     12  C   UNL     1       6.065   0.771   0.000  1.00  0.00     0.157 A 
ATOM     13  C   UNL     1       5.066   1.890   0.000  1.00  0.00     0.050 A 
ATOM     14  C   UNL     1       3.597   1.584   0.000  1.00  0.00     0.010 A 
BRANCH  10  15
ATOM     15  O   UNL     1       6.595  -1.772   0.000  1.00  0.00    -0.493 OA
ATOM     16  C   UNL     1       6.126  -3.197   0.000  1.00  0.00     0.278 C 
ENDBRANCH  10  15
BRANCH  12  17
ATOM     17  O   UNL     1       7.534   1.078   0.000  1.00  0.00    -0.504 OA
ATOM     18  H   UNL     1       0.000   0.000   0.000  1.00  0.00     0.293 HD
ENDBRANCH  12  17
ENDBRANCH   1   9
BRANCH   8  19
ATOM     19  C   UNL     1      -3.332   0.819   0.000  1.00  0.00    -0.015 A 
ATOM     20  C   UNL     1      -4.331   1.938   0.000  1.00  0.00     0.010 A 
ATOM     21  C   UNL     1      -3.801  -0.606   0.000  1.00  0.00     0.056 A 
ATOM     22  C   UNL     1      -5.800   1.631   0.000  1.00  0.00     0.050 A 
ATOM     23  C   UNL     1      -5.270  -0.912   0.000  1.00  0.00     0.160 A 
ATOM     24  C   UNL     1      -6.269   0.207   0.000  1.00  0.00     0.157 A 
BRANCH  23  25
ATOM     25  O   UNL     1      -5.739  -2.337   0.000  1.00  0.00    -0.493 OA
ATOM     26  C   UNL     1      -4.740  -3.455   0.000  1.00  0.00     0.278 C 
ENDBRANCH  23  25
BRANCH  24  27
ATOM     27  O   UNL     1      -7.737  -0.099   0.000  1.00  0.00    -0.504 OA
ATOM     28  H   UNL     1       0.000   0.000   0.000  1.00  0.00     0.293 HD
ENDBRANCH  24  27
ENDBRANCH   8  19
TORSDOF 6
