REMARK SMILES COC(=O)c1cc(CC=C(C)C)c(O)c(CC=C(C)CCC=C(C)C)c1
REMARK SMILES IDX 17 1 16 2 15 3 5 4 6 5 26 6 7 7 13 8 3 9 4 10 2 11 1 12 8 13
REMARK SMILES IDX 9 14 10 15 11 16 12 17 14 18 18 20 19 21 20 22 21 23 22 24
REMARK SMILES IDX 23 25 24 26 25 27
REMARK H PARENT 14 19
ROOT
ATOM      1  C   UNL     1       1.652  -1.765   0.000  1.00  0.00    -0.023 C 
ENDROOT
BRANCH   1   2
ATOM      2  C   UNL     1       0.875  -0.482   0.000  1.00  0.00     0.066 C 
BRANCH   2   3
ATOM      3  C   UNL     1      -0.624  -0.513   0.000  1.00  0.00    -0.001 A 
ATOM      4  C   UNL     1      -2.847  -1.858   0.000  1.00  0.00     0.060 A 
ATOM      5  C   UNL     1      -3.623  -0.575   0.000  1.00  0.00     0.023 A 
ATOM      6  C   UNL     1      -1.347  -1.827   0.000  1.00  0.00     0.023 A 
ATOM      7  C   UNL     1      -2.901   0.740   0.000  1.00  0.00    -0.001 A 
ATOM      8  C   UNL     1      -1.401   0.771   0.000  1.00  0.00     0.122 A 
BRANCH   4   9
ATOM      9  C   UNL     1      -3.570  -3.172   0.000  1.00  0.00     0.337 C 
ATOM     10  O   UNL     1      -2.793  -4.455   0.000  1.00  0.00    -0.246 OA
BRANCH   9  11
ATOM     11  O   UNL     1      -5.069  -3.203   0.000  1.00  0.00    -0.465 OA
ATOM     12  C   UNL     1      -5.792  -4.518   0.000  1.00  0.00     0.282 C 
ENDBRANCH   9  11
ENDBRANCH   4   9
BRANCH   7  13
ATOM     13  C   UNL     1      -3.677   2.023   0.000  1.00  0.00     0.066 C 
BRANCH  13  14
ATOM     14  C   UNL     1      -2.954   3.337   0.000  1.00  0.00    -0.023 C 
BRANCH  14  15
ATOM     15  C   UNL     1      -3.731   4.620   0.000  1.00  0.00    -0.080 C 
ATOM     16  C   UNL     1      -3.008   5.935   0.000  1.00  0.00     0.039 C 
ATOM     17  C   UNL     1      -5.231   4.589   0.000  1.00  0.00     0.039 C 
ENDBRANCH  14  15
ENDBRANCH  13  14
ENDBRANCH   7  13
BRANCH   8  18
ATOM     18  O   UNL     1      -0.678   2.085   0.000  1.00  0.00    -0.507 OA
ATOM     19  H   UNL     1       0.000   0.000   0.000  1.00  0.00     0.293 HD
ENDBRANCH   8  18
ENDBRANCH   2   3
ENDBRANCH   1   2
BRANCH   1  20
ATOM     20  C   UNL     1       3.152  -1.734   0.000  1.00  0.00    -0.077 C 
ATOM     21  C   UNL     1       3.929  -3.017   0.000  1.00  0.00     0.039 C 
BRANCH  20  22
ATOM     22  C   UNL     1       3.875  -0.420   0.000  1.00  0.00     0.034 C 
BRANCH  22  23
ATOM     23  C   UNL     1       5.375  -0.389   0.000  1.00  0.00     0.032 C 
BRANCH  23  24
ATOM     24  C   UNL     1       6.098   0.926   0.000  1.00  0.00    -0.028 C 
BRANCH  24  25
ATOM     25  C   UNL     1       7.597   0.957   0.000  1.00  0.00    -0.080 C 
ATOM     26  C   UNL     1       8.320   2.271   0.000  1.00  0.00     0.039 C 
ATOM     27  C   UNL     1       8.374  -0.327   0.000  1.00  0.00     0.039 C 
ENDBRANCH  24  25
ENDBRANCH  23  24
ENDBRANCH  22  23
ENDBRANCH  20  22
ENDBRANCH   1  20
TORSDOF 13
