REMARK SMILES CC1=C[C@H]2[C@@H](C(C)C)CC[C@@](C)(O)[C@H]2CC1
REMARK SMILES IDX 1 1 2 2 3 3 4 4 5 5 9 6 10 7 11 8 12 9 14 10 15 11 16 12
REMARK SMILES IDX 6 13 7 14 8 15 13 16
REMARK H PARENT 13 17
ROOT
ATOM      1  C   UNL     1      -1.904  -3.745   0.000  1.00  0.00     0.039 C 
ATOM      2  C   UNL     1      -0.899  -2.631   0.000  1.00  0.00    -0.077 C 
ATOM      3  C   UNL     1      -1.362  -1.204   0.000  1.00  0.00    -0.024 C 
ATOM      4  C   UNL     1      -0.358  -0.090   0.000  1.00  0.00     0.021 C 
ATOM      5  C   UNL     1      -0.821   1.337   0.000  1.00  0.00    -0.001 C 
ATOM      6  C   UNL     1       0.184   2.451   0.000  1.00  0.00     0.007 C 
ATOM      7  C   UNL     1       1.651   2.139   0.000  1.00  0.00     0.035 C 
ATOM      8  C   UNL     1       2.114   0.712   0.000  1.00  0.00     0.065 C 
ATOM      9  C   UNL     1       3.037  -0.471   0.000  1.00  0.00     0.042 C 
ATOM     10  C   UNL     1       1.109  -0.403   0.000  1.00  0.00     0.028 C 
ATOM     11  C   UNL     1       1.572  -1.829   0.000  1.00  0.00     0.011 C 
ATOM     12  C   UNL     1       0.568  -2.943   0.000  1.00  0.00     0.031 C 
ENDROOT
BRANCH   5  13
ATOM     13  C   UNL     1      -2.288   1.650   0.000  1.00  0.00    -0.014 C 
ATOM     14  C   UNL     1      -2.750   3.077   0.000  1.00  0.00     0.007 C 
ATOM     15  C   UNL     1      -3.292   0.536   0.000  1.00  0.00     0.007 C 
ENDBRANCH   5  13
BRANCH   8  16
ATOM     16  O   UNL     1       3.438   1.415   0.000  1.00  0.00    -0.390 OA
ATOM     17  H   UNL     1       0.000   0.000   0.000  1.00  0.00     0.211 HD
ENDBRANCH   8  16
TORSDOF 2
