REMARK SMILES CC1(C)C=Cc2c(cc3occ(-c4ccc(O)cc4)c(=O)c3c2O)O1
REMARK SMILES IDX 1 1 2 2 3 3 4 4 5 5 6 6 7 7 8 8 9 9 10 10 11 11 12 12 20 13
REMARK SMILES IDX 21 14 22 15 23 16 25 17 24 18 13 20 14 21 19 22 15 23 18 24
REMARK SMILES IDX 16 25 17 26
REMARK H PARENT 24 19 17 27
ROOT
ATOM      1  C   UNL     1      -6.630  -1.220   0.000  1.00  0.00     0.061 C 
ATOM      2  C   UNL     1      -5.752  -0.004   0.000  1.00  0.00     0.122 C 
ATOM      3  C   UNL     1      -7.102   0.649   0.000  1.00  0.00     0.061 C 
ATOM      4  C   UNL     1      -5.342   1.439   0.000  1.00  0.00     0.021 C 
ATOM      5  C   UNL     1      -3.888   1.806   0.000  1.00  0.00     0.015 C 
ATOM      6  C   UNL     1      -2.843   0.730   0.000  1.00  0.00     0.059 A 
ATOM      7  C   UNL     1      -3.252  -0.713   0.000  1.00  0.00     0.135 A 
ATOM      8  C   UNL     1      -2.207  -1.790   0.000  1.00  0.00     0.095 A 
ATOM      9  C   UNL     1      -0.753  -1.423   0.000  1.00  0.00     0.145 A 
ATOM     10  O   UNL     1       0.292  -2.499   0.000  1.00  0.00    -0.463 OA
ATOM     11  C   UNL     1       1.746  -2.132   0.000  1.00  0.00     0.208 A 
ATOM     12  C   UNL     1       2.156  -0.689   0.000  1.00  0.00     0.065 A 
ATOM     13  C   UNL     1       1.111   0.388   0.000  1.00  0.00     0.204 A 
ATOM     14  O   UNL     1       1.520   1.831   0.000  1.00  0.00    -0.288 OA
ATOM     15  C   UNL     1      -0.344   0.021   0.000  1.00  0.00     0.108 A 
ATOM     16  C   UNL     1      -1.389   1.097   0.000  1.00  0.00     0.141 A 
ATOM     17  O   UNL     1      -4.707  -1.080   0.000  1.00  0.00    -0.483 OA
ENDROOT
BRANCH  16  18
ATOM     18  O   UNL     1      -0.979   2.540   0.000  1.00  0.00    -0.506 OA
ATOM     19  H   UNL     1       0.000   0.000   0.000  1.00  0.00     0.293 HD
ENDBRANCH  16  18
BRANCH  12  20
ATOM     20  C   UNL     1       3.610  -0.322   0.000  1.00  0.00    -0.011 A 
ATOM     21  C   UNL     1       4.655  -1.398   0.000  1.00  0.00     0.013 A 
ATOM     22  C   UNL     1       4.020   1.121   0.000  1.00  0.00     0.013 A 
ATOM     23  C   UNL     1       6.110  -1.031   0.000  1.00  0.00     0.047 A 
ATOM     24  C   UNL     1       5.474   1.488   0.000  1.00  0.00     0.047 A 
ATOM     25  C   UNL     1       6.519   0.412   0.000  1.00  0.00     0.115 A 
BRANCH  25  26
ATOM     26  O   UNL     1       7.974   0.779   0.000  1.00  0.00    -0.508 OA
ATOM     27  H   UNL     1       0.000   0.000   0.000  1.00  0.00     0.293 HD
ENDBRANCH  25  26
ENDBRANCH  12  20
TORSDOF 3
