REMARK SMILES C=CCc1cc([C@H](C)Cc2ccc(OC)c(OC)c2)c(OC)cc1O
REMARK SMILES IDX 7 1 8 2 6 3 4 4 5 5 24 6 23 7 20 8 3 9 2 10 1 11 25 12 21 14
REMARK SMILES IDX 22 15 9 16 10 17 11 18 19 19 12 20 16 21 13 22 17 23 18 24
REMARK SMILES IDX 14 25 15 26
REMARK H PARENT 25 13
ROOT
ATOM      1  C   UNL     1       0.421   0.887   0.000  1.00  0.00     0.024 C 
ATOM      2  C   UNL     1      -0.151   2.274   0.000  1.00  0.00     0.013 C 
ENDROOT
BRANCH   1   3
ATOM      3  C   UNL     1       1.908   0.689   0.000  1.00  0.00    -0.002 A 
ATOM      4  C   UNL     1       3.966  -0.896   0.000  1.00  0.00    -0.002 A 
ATOM      5  C   UNL     1       2.479  -0.698   0.000  1.00  0.00     0.015 A 
ATOM      6  C   UNL     1       4.881   0.292   0.000  1.00  0.00     0.122 A 
ATOM      7  C   UNL     1       4.310   1.679   0.000  1.00  0.00     0.093 A 
ATOM      8  C   UNL     1       2.823   1.878   0.000  1.00  0.00     0.126 A 
BRANCH   4   9
ATOM      9  C   UNL     1       4.538  -2.283   0.000  1.00  0.00     0.066 C 
BRANCH   9  10
ATOM     10  C   UNL     1       3.623  -3.471   0.000  1.00  0.00    -0.030 C 
ATOM     11  C   UNL     1       4.194  -4.858   0.000  1.00  0.00     0.004 C 
ENDBRANCH   9  10
ENDBRANCH   4   9
BRANCH   6  12
ATOM     12  O   UNL     1       6.368   0.094   0.000  1.00  0.00    -0.508 OA
ATOM     13  H   UNL     1       0.000   0.000   0.000  1.00  0.00     0.293 HD
ENDBRANCH   6  12
BRANCH   8  14
ATOM     14  O   UNL     1       2.251   3.264   0.000  1.00  0.00    -0.496 OA
ATOM     15  C   UNL     1       3.167   4.453   0.000  1.00  0.00     0.278 C 
ENDBRANCH   8  14
ENDBRANCH   1   3
BRANCH   1  16
ATOM     16  C   UNL     1      -0.494  -0.301   0.000  1.00  0.00     0.043 C 
BRANCH  16  17
ATOM     17  C   UNL     1      -1.981  -0.103   0.000  1.00  0.00    -0.043 A 
ATOM     18  C   UNL     1      -2.553   1.284   0.000  1.00  0.00     0.008 A 
ATOM     19  C   UNL     1      -2.896  -1.291   0.000  1.00  0.00     0.054 A 
ATOM     20  C   UNL     1      -4.040   1.482   0.000  1.00  0.00     0.051 A 
ATOM     21  C   UNL     1      -4.383  -1.093   0.000  1.00  0.00     0.160 A 
ATOM     22  C   UNL     1      -4.955   0.294   0.000  1.00  0.00     0.160 A 
BRANCH  21  23
ATOM     23  O   UNL     1      -5.298  -2.281   0.000  1.00  0.00    -0.493 OA
ATOM     24  C   UNL     1      -4.726  -3.668   0.000  1.00  0.00     0.278 C 
ENDBRANCH  21  23
BRANCH  22  25
ATOM     25  O   UNL     1      -6.441   0.492   0.000  1.00  0.00    -0.493 OA
ATOM     26  C   UNL     1      -7.013   1.879   0.000  1.00  0.00     0.278 C 
ENDBRANCH  22  25
ENDBRANCH  16  17
ENDBRANCH   1  16
TORSDOF 9
