REMARK SMILES COc1ccc2c(c1)oc(=O)c1c3ccc(OC)cc3oc21
REMARK SMILES IDX 3 1 4 2 5 3 6 4 7 5 8 6 9 7 10 8 11 9 12 10 22 11 21 12
REMARK SMILES IDX 20 13 19 14 16 15 15 16 14 17 13 18 2 19 1 20 17 21 18 22
REMARK H PARENT
ROOT
ATOM      1  C   UNL     1      -4.767   0.289   0.000  1.00  0.00     0.122 A 
ATOM      2  C   UNL     1      -4.056   1.609   0.000  1.00  0.00     0.047 A 
ATOM      3  C   UNL     1      -2.557   1.653   0.000  1.00  0.00     0.020 A 
ATOM      4  C   UNL     1      -1.769   0.377   0.000  1.00  0.00     0.061 A 
ATOM      5  C   UNL     1      -2.480  -0.944   0.000  1.00  0.00     0.145 A 
ATOM      6  C   UNL     1      -3.979  -0.988   0.000  1.00  0.00     0.094 A 
ATOM      7  O   UNL     1      -1.692  -2.220   0.000  1.00  0.00    -0.422 OA
ATOM      8  C   UNL     1      -0.193  -2.176   0.000  1.00  0.00     0.348 A 
ATOM      9  O   UNL     1       0.595  -3.452   0.000  1.00  0.00    -0.246 OA
ATOM     10  C   UNL     1       0.519  -0.855   0.000  1.00  0.00     0.114 A 
ATOM     11  C   UNL     1      -0.269   0.421   0.000  1.00  0.00     0.153 A 
ATOM     12  O   UNL     1       0.701   1.565   0.000  1.00  0.00    -0.455 OA
ATOM     13  C   UNL     1       2.089   0.995   0.000  1.00  0.00     0.139 A 
ATOM     14  C   UNL     1       3.441   1.645   0.000  1.00  0.00     0.094 A 
ATOM     15  C   UNL     1       4.680   0.800   0.000  1.00  0.00     0.122 A 
ATOM     16  C   UNL     1       4.567  -0.696   0.000  1.00  0.00     0.047 A 
ATOM     17  C   UNL     1       3.215  -1.346   0.000  1.00  0.00     0.017 A 
ATOM     18  C   UNL     1       1.976  -0.500   0.000  1.00  0.00     0.036 A 
ENDROOT
BRANCH   1  19
ATOM     19  O   UNL     1      -6.267   0.245   0.000  1.00  0.00    -0.497 OA
ATOM     20  C   UNL     1      -7.054   1.521   0.000  1.00  0.00     0.278 C 
ENDBRANCH   1  19
BRANCH  15  21
ATOM     21  O   UNL     1       6.031   1.450   0.000  1.00  0.00    -0.497 OA
ATOM     22  C   UNL     1       7.270   0.605   0.000  1.00  0.00     0.278 C 
ENDBRANCH  15  21
TORSDOF 2
