REMARK SMILES COc1ccc(-c2cc(=O)c3c(OC(C)=O)c4c(c(OC)c3o2)OC(C)(C)C=C4)cc1OC
REMARK SMILES IDX 7 1 8 2 9 3 10 4 11 5 12 6 17 7 18 8 24 9 25 10 26 11 27 12
REMARK SMILES IDX 28 13 29 14 19 15 22 16 23 17 6 18 3 19 4 20 31 21 5 22
REMARK SMILES IDX 30 23 2 24 1 25 32 26 33 27 20 28 21 29 13 30 14 31 15 32
REMARK SMILES IDX 16 33
REMARK H PARENT
ROOT
ATOM      1  C   UNL     1      -1.963   0.769   0.000  1.00  0.00     0.138 A 
ATOM      2  C   UNL     1      -1.379   2.150   0.000  1.00  0.00     0.100 A 
ATOM      3  C   UNL     1       0.110   2.336   0.000  1.00  0.00     0.197 A 
ATOM      4  O   UNL     1       0.694   3.717   0.000  1.00  0.00    -0.289 OA
ATOM      5  C   UNL     1       1.014   1.139   0.000  1.00  0.00     0.112 A 
ATOM      6  C   UNL     1       2.503   1.324   0.000  1.00  0.00     0.157 A 
ATOM      7  C   UNL     1       3.407   0.127   0.000  1.00  0.00     0.064 A 
ATOM      8  C   UNL     1       2.823  -1.254   0.000  1.00  0.00     0.177 A 
ATOM      9  O   UNL     1       3.728  -2.451   0.000  1.00  0.00    -0.479 OA
ATOM     10  C   UNL     1       5.216  -2.266   0.000  1.00  0.00     0.122 C 
ATOM     11  C   UNL     1       6.678  -2.601   0.000  1.00  0.00     0.061 C 
ATOM     12  C   UNL     1       5.140  -3.764   0.000  1.00  0.00     0.061 C 
ATOM     13  C   UNL     1       5.800  -0.884   0.000  1.00  0.00     0.021 C 
ATOM     14  C   UNL     1       4.896   0.312   0.000  1.00  0.00     0.016 C 
ATOM     15  C   UNL     1       1.335  -1.439   0.000  1.00  0.00     0.205 A 
ATOM     16  C   UNL     1       0.430  -0.243   0.000  1.00  0.00     0.188 A 
ATOM     17  O   UNL     1      -1.058  -0.428   0.000  1.00  0.00    -0.452 OA
ENDROOT
BRANCH   1  18
ATOM     18  C   UNL     1      -3.451   0.584   0.000  1.00  0.00     0.021 A 
ATOM     19  C   UNL     1      -6.428   0.214   0.000  1.00  0.00     0.160 A 
ATOM     20  C   UNL     1      -5.844   1.595   0.000  1.00  0.00     0.051 A 
ATOM     21  C   UNL     1      -5.524  -0.983   0.000  1.00  0.00     0.161 A 
ATOM     22  C   UNL     1      -4.356   1.780   0.000  1.00  0.00     0.016 A 
ATOM     23  C   UNL     1      -4.035  -0.798   0.000  1.00  0.00     0.062 A 
BRANCH  19  24
ATOM     24  O   UNL     1      -7.917   0.029   0.000  1.00  0.00    -0.493 OA
ATOM     25  C   UNL     1      -8.822   1.225   0.000  1.00  0.00     0.278 C 
ENDBRANCH  19  24
BRANCH  21  26
ATOM     26  O   UNL     1      -6.108  -2.365   0.000  1.00  0.00    -0.493 OA
ATOM     27  C   UNL     1      -5.203  -3.561   0.000  1.00  0.00     0.278 C 
ENDBRANCH  21  26
ENDBRANCH   1  18
BRANCH  15  28
ATOM     28  O   UNL     1       0.751  -2.821   0.000  1.00  0.00    -0.490 OA
ATOM     29  C   UNL     1      -0.738  -3.006   0.000  1.00  0.00     0.278 C 
ENDBRANCH  15  28
BRANCH   6  30
ATOM     30  O   UNL     1       3.087   2.706   0.000  1.00  0.00    -0.425 OA
BRANCH  30  31
ATOM     31  C   UNL     1       4.575   2.891   0.000  1.00  0.00     0.308 C 
ATOM     32  C   UNL     1       5.159   4.272   0.000  1.00  0.00     0.139 C 
ATOM     33  O   UNL     1       5.480   1.694   0.000  1.00  0.00    -0.252 OA
ENDBRANCH  30  31
ENDBRANCH   6  30
TORSDOF 6
