REMARK SMILES COc1cc(OC)c2c(=O)c(OC)c(-c3ccccc3)oc2c1
REMARK SMILES IDX 3 1 4 2 5 3 8 4 9 5 10 6 11 7 14 8 21 9 22 10 23 11 2 12
REMARK SMILES IDX 1 13 6 14 7 15 15 16 16 17 20 18 17 19 19 20 18 21 12 22
REMARK SMILES IDX 13 23
REMARK H PARENT
ROOT
ATOM      1  C   UNL     1      -3.523  -1.639   0.000  1.00  0.00     0.126 A 
ATOM      2  C   UNL     1      -3.943  -0.199   0.000  1.00  0.00     0.093 A 
ATOM      3  C   UNL     1      -2.905   0.885   0.000  1.00  0.00     0.137 A 
ATOM      4  C   UNL     1      -1.448   0.529   0.000  1.00  0.00     0.111 A 
ATOM      5  C   UNL     1      -0.411   1.612   0.000  1.00  0.00     0.239 A 
ATOM      6  O   UNL     1      -0.831   3.052   0.000  1.00  0.00    -0.285 OA
ATOM      7  C   UNL     1       1.046   1.256   0.000  1.00  0.00     0.210 A 
ATOM      8  C   UNL     1       1.466  -0.184   0.000  1.00  0.00     0.180 A 
ATOM      9  O   UNL     1       0.428  -1.268   0.000  1.00  0.00    -0.452 OA
ATOM     10  C   UNL     1      -1.029  -0.911   0.000  1.00  0.00     0.146 A 
ATOM     11  C   UNL     1      -2.066  -1.995   0.000  1.00  0.00     0.094 A 
ENDROOT
BRANCH   1  12
ATOM     12  O   UNL     1      -4.560  -2.722   0.000  1.00  0.00    -0.496 OA
ATOM     13  C   UNL     1      -6.017  -2.366   0.000  1.00  0.00     0.278 C 
ENDBRANCH   1  12
BRANCH   3  14
ATOM     14  O   UNL     1      -3.325   2.325   0.000  1.00  0.00    -0.496 OA
ATOM     15  C   UNL     1      -4.782   2.681   0.000  1.00  0.00     0.278 C 
ENDBRANCH   3  14
BRANCH   8  16
ATOM     16  C   UNL     1       2.923  -0.540   0.000  1.00  0.00     0.021 A 
ATOM     17  C   UNL     1       3.343  -1.980   0.000  1.00  0.00     0.012 A 
ATOM     18  C   UNL     1       3.960   0.543   0.000  1.00  0.00     0.012 A 
ATOM     19  C   UNL     1       4.800  -2.337   0.000  1.00  0.00     0.001 A 
ATOM     20  C   UNL     1       5.417   0.187   0.000  1.00  0.00     0.001 A 
ATOM     21  C   UNL     1       5.837  -1.253   0.000  1.00  0.00     0.000 A 
ENDBRANCH   8  16
BRANCH   7  22
ATOM     22  O   UNL     1       2.083   2.340   0.000  1.00  0.00    -0.490 OA
ATOM     23  C   UNL     1       3.540   1.983   0.000  1.00  0.00     0.278 C 
ENDBRANCH   7  22
TORSDOF 4
