REMARK SMILES C=C/C(C)=C\C[C@]1(C)[C@H](C)[C@@H](OC(=O)CCC)[C@H](OC(C)=O)[C@@]23C(=C[C@H](OC)C[C@@H]12)[C@@H](OC(C)=O)O[C@H]3OC(=O)CCC
REMARK SMILES IDX 7 1 8 2 9 3 10 4 11 5 18 6 23 7 24 8 25 9 26 10 29 11 30 12
REMARK SMILES IDX 31 13 36 14 37 15 6 16 5 17 3 18 4 19 2 20 1 21 12 22 13 23
REMARK SMILES IDX 14 24 15 25 16 26 17 27 19 28 20 29 21 30 22 31 27 32 28 33
REMARK SMILES IDX 38 34 39 35 40 36 41 37 42 38 43 39 32 40 33 41 34 42 35 43
REMARK H PARENT
ROOT
ATOM      1  C   UNL     1       0.792  -2.183   0.000  1.00  0.00    -0.019 C 
ATOM      2  C   UNL     1       0.702  -3.681   0.000  1.00  0.00     0.012 C 
ATOM      3  C   UNL     1       1.389  -0.807   0.000  1.00  0.00     0.037 C 
ATOM      4  C   UNL     1       2.879  -0.636   0.000  1.00  0.00     0.012 C 
ATOM      5  C   UNL     1       0.495   0.398   0.000  1.00  0.00     0.222 C 
ATOM      6  C   UNL     1      -0.995   0.227   0.000  1.00  0.00     0.234 C 
ATOM      7  C   UNL     1      -1.592  -1.150   0.000  1.00  0.00     0.104 C 
ATOM      8  C   UNL     1      -3.082  -1.321   0.000  1.00  0.00     0.013 C 
ATOM      9  C   UNL     1      -3.679  -2.697   0.000  1.00  0.00     0.011 C 
ATOM     10  C   UNL     1      -2.785  -3.902   0.000  1.00  0.00     0.141 C 
ATOM     11  C   UNL     1      -1.295  -3.731   0.000  1.00  0.00     0.042 C 
ATOM     12  C   UNL     1      -0.698  -2.355   0.000  1.00  0.00     0.019 C 
ATOM     13  C   UNL     1      -3.705   0.043   0.000  1.00  0.00     0.343 C 
ATOM     14  O   UNL     1      -2.600   1.058   0.000  1.00  0.00    -0.298 OA
ATOM     15  C   UNL     1      -1.294   0.321   0.000  1.00  0.00     0.329 C 
ENDROOT
BRANCH   1  16
ATOM     16  C   UNL     1       2.251  -2.532   0.000  1.00  0.00     0.035 C 
BRANCH  16  17
ATOM     17  C   UNL     1       2.678  -3.970   0.000  1.00  0.00    -0.023 C 
BRANCH  17  18
ATOM     18  C   UNL     1       4.137  -4.319   0.000  1.00  0.00    -0.056 C 
ATOM     19  C   UNL     1       4.564  -5.756   0.000  1.00  0.00     0.044 C 
BRANCH  18  20
ATOM     20  C   UNL     1       5.168  -3.229   0.000  1.00  0.00    -0.005 C 
ATOM     21  C   UNL     1       6.627  -3.578   0.000  1.00  0.00     0.009 C 
ENDBRANCH  18  20
ENDBRANCH  17  18
ENDBRANCH  16  17
ENDBRANCH   1  16
BRANCH   5  22
ATOM     22  O   UNL     1       1.092   1.774   0.000  1.00  0.00    -0.458 OA
BRANCH  22  23
ATOM     23  C   UNL     1       2.582   1.945   0.000  1.00  0.00     0.306 C 
ATOM     24  O   UNL     1       3.475   0.740   0.000  1.00  0.00    -0.252 OA
BRANCH  23  25
ATOM     25  C   UNL     1       3.179   3.321   0.000  1.00  0.00     0.122 C 
BRANCH  25  26
ATOM     26  C   UNL     1       4.669   3.493   0.000  1.00  0.00     0.008 C 
ATOM     27  C   UNL     1       5.266   4.869   0.000  1.00  0.00     0.004 C 
ENDBRANCH  25  26
ENDBRANCH  23  25
ENDBRANCH  22  23
ENDBRANCH   5  22
BRANCH   6  28
ATOM     28  O   UNL     1      -1.889   1.431   0.000  1.00  0.00    -0.457 OA
BRANCH  28  29
ATOM     29  C   UNL     1      -1.292   2.808   0.000  1.00  0.00     0.303 C 
ATOM     30  C   UNL     1      -2.185   4.012   0.000  1.00  0.00     0.139 C 
ATOM     31  O   UNL     1       0.113   3.334   0.000  1.00  0.00    -0.253 OA
ENDBRANCH  28  29
ENDBRANCH   6  28
BRANCH  10  32
ATOM     32  O   UNL     1      -3.382  -5.278   0.000  1.00  0.00    -0.377 OA
ATOM     33  C   UNL     1      -4.872  -5.450   0.000  1.00  0.00     0.195 C 
ENDBRANCH  10  32
BRANCH  15  34
ATOM     34  O   UNL     1       0.070   0.944   0.000  1.00  0.00    -0.434 OA
BRANCH  34  35
ATOM     35  C   UNL     1       0.212   2.437   0.000  1.00  0.00     0.308 C 
ATOM     36  O   UNL     1      -0.763   3.577   0.000  1.00  0.00    -0.252 OA
BRANCH  35  37
ATOM     37  C   UNL     1       1.577   3.061   0.000  1.00  0.00     0.122 C 
BRANCH  37  38
ATOM     38  C   UNL     1       1.719   4.554   0.000  1.00  0.00     0.008 C 
ATOM     39  C   UNL     1       3.083   5.177   0.000  1.00  0.00     0.004 C 
ENDBRANCH  37  38
ENDBRANCH  35  37
ENDBRANCH  34  35
ENDBRANCH  15  34
BRANCH  13  40
ATOM     40  O   UNL     1      -5.176   0.341   0.000  1.00  0.00    -0.432 OA
BRANCH  40  41
ATOM     41  C   UNL     1      -5.653   1.763   0.000  1.00  0.00     0.305 C 
ATOM     42  C   UNL     1      -7.123   2.061   0.000  1.00  0.00     0.139 C 
ATOM     43  O   UNL     1      -4.660   2.887   0.000  1.00  0.00    -0.253 OA
ENDBRANCH  40  41
ENDBRANCH  13  40
TORSDOF 17
