REMARK SMILES CC1=C2C(=O)c3c(C)coc3C[C@@]2(C)CCC1
REMARK SMILES IDX 1 1 2 2 3 3 4 4 5 5 6 6 11 7 12 8 13 9 14 10 15 11 16 12
REMARK SMILES IDX 17 13 10 14 9 15 7 16 8 17
REMARK H PARENT
ROOT
ATOM      1  C   UNL     1       2.055  -2.841   0.000  1.00  0.00     0.040 C 
ATOM      2  C   UNL     1       2.203  -1.348   0.000  1.00  0.00    -0.066 C 
ATOM      3  C   UNL     1       0.984  -0.473   0.000  1.00  0.00     0.006 C 
ATOM      4  C   UNL     1      -0.382  -1.092   0.000  1.00  0.00     0.193 C 
ATOM      5  O   UNL     1      -0.530  -2.584   0.000  1.00  0.00    -0.289 OA
ATOM      6  C   UNL     1      -1.601  -0.217   0.000  1.00  0.00     0.067 A 
ATOM      7  C   UNL     1      -1.453   1.275   0.000  1.00  0.00     0.116 A 
ATOM      8  C   UNL     1      -0.087   1.894   0.000  1.00  0.00     0.087 C 
ATOM      9  C   UNL     1       1.132   1.019   0.000  1.00  0.00     0.003 C 
ATOM     10  C   UNL     1       1.280   2.512   0.000  1.00  0.00     0.017 C 
ATOM     11  C   UNL     1       2.499   1.637   0.000  1.00  0.00     0.012 C 
ATOM     12  C   UNL     1       3.717   0.763   0.000  1.00  0.00     0.005 C 
ATOM     13  C   UNL     1       3.570  -0.730   0.000  1.00  0.00     0.031 C 
ATOM     14  O   UNL     1      -2.827   1.877   0.000  1.00  0.00    -0.468 OA
ATOM     15  C   UNL     1      -3.824   0.757   0.000  1.00  0.00     0.199 A 
ATOM     16  C   UNL     1      -3.067  -0.538   0.000  1.00  0.00    -0.001 A 
ATOM     17  C   UNL     1      -3.668  -1.912   0.000  1.00  0.00     0.048 C 
ENDROOT
TORSDOF 0
