REMARK SMILES CCCCCc1ccc2ccccc2n1
REMARK SMILES IDX 3 1 2 2 1 3 4 4 5 5 6 6 7 7 15 8 8 9 14 10 9 11 13 12 10 13
REMARK SMILES IDX 12 14 11 15
REMARK H PARENT
ROOT
ATOM      1  C   UNL     1      -4.312  -0.139   0.000  1.00  0.00     0.000 C 
ENDROOT
BRANCH   1   2
ATOM      2  C   UNL     1      -5.203   1.068   0.000  1.00  0.00    -0.003 C 
ATOM      3  C   UNL     1      -6.693   0.899   0.000  1.00  0.00     0.004 C 
ENDBRANCH   1   2
BRANCH   1   4
ATOM      4  C   UNL     1      -2.821   0.030   0.000  1.00  0.00     0.006 C 
BRANCH   4   5
ATOM      5  C   UNL     1      -1.930  -1.177   0.000  1.00  0.00     0.056 C 
BRANCH   5   6
ATOM      6  C   UNL     1      -0.440  -1.008   0.000  1.00  0.00     0.041 A 
ATOM      7  C   UNL     1       0.452  -2.215   0.000  1.00  0.00     0.024 A 
ATOM      8  N   UNL     1       0.160   0.367   0.000  1.00  0.00    -0.253 NA
ATOM      9  C   UNL     1       1.942  -2.046   0.000  1.00  0.00     0.012 A 
ATOM     10  C   UNL     1       1.650   0.535   0.000  1.00  0.00     0.070 A 
ATOM     11  C   UNL     1       2.542  -0.671   0.000  1.00  0.00     0.000 A 
ATOM     12  C   UNL     1       2.250   1.910   0.000  1.00  0.00     0.029 A 
ATOM     13  C   UNL     1       4.032  -0.503   0.000  1.00  0.00     0.010 A 
ATOM     14  C   UNL     1       3.740   2.079   0.000  1.00  0.00     0.002 A 
ATOM     15  C   UNL     1       4.631   0.872   0.000  1.00  0.00     0.001 A 
ENDBRANCH   5   6
ENDBRANCH   4   5
ENDBRANCH   1   4
TORSDOF 4
