REMARK SMILES CC(C)=CCC[C@H](C(=O)O)[C@@H]1CC[C@]2(C)C3=C(CC[C@@]12C)[C@@]1(C)CCC(=O)C(C)(C)[C@@H]1CC3
REMARK SMILES IDX 6 1 5 2 4 3 2 4 1 5 3 6 7 7 8 8 9 9 10 10 11 12 12 13 20 14
REMARK SMILES IDX 13 15 19 16 14 17 18 18 16 19 17 20 33 21 22 22 32 23 24 24
REMARK SMILES IDX 31 25 25 26 28 27 26 28 21 29 15 30 23 31 29 32 30 33 27 34
REMARK H PARENT 10 11
ROOT
ATOM      1  C   UNL     1       4.804   0.764   0.000  1.00  0.00     0.020 C 
ENDROOT
BRANCH   1   2
ATOM      2  C   UNL     1       6.086  -0.013   0.000  1.00  0.00     0.028 C 
BRANCH   2   3
ATOM      3  C   UNL     1       7.401   0.708   0.000  1.00  0.00    -0.028 C 
BRANCH   3   4
ATOM      4  C   UNL     1       8.684  -0.070   0.000  1.00  0.00    -0.080 C 
ATOM      5  C   UNL     1       9.999   0.652   0.000  1.00  0.00     0.039 C 
ATOM      6  C   UNL     1       8.651  -1.569   0.000  1.00  0.00     0.039 C 
ENDBRANCH   3   4
ENDBRANCH   2   3
ENDBRANCH   1   2
BRANCH   1   7
ATOM      7  C   UNL     1       3.489   0.043   0.000  1.00  0.00     0.103 C 
BRANCH   7   8
ATOM      8  C   UNL     1       3.456  -1.457   0.000  1.00  0.00     0.306 C 
ATOM      9  O   UNL     1       2.141  -2.179   0.000  1.00  0.00    -0.252 OA
BRANCH   8  10
ATOM     10  O   UNL     1       4.739  -2.235   0.000  1.00  0.00    -0.481 OA
ATOM     11  H   UNL     1       0.000   0.000   0.000  1.00  0.00     0.296 HD
ENDBRANCH   8  10
ENDBRANCH   7   8
BRANCH   7  12
ATOM     12  C   UNL     1       2.206   0.821   0.000  1.00  0.00     0.010 C 
ATOM     13  C   UNL     1       2.082   2.315   0.000  1.00  0.00     0.006 C 
ATOM     14  C   UNL     1       0.823   0.240   0.000  1.00  0.00    -0.019 C 
ATOM     15  C   UNL     1       0.622   2.659   0.000  1.00  0.00     0.012 C 
ATOM     16  C   UNL     1       0.329  -1.176   0.000  1.00  0.00     0.012 C 
ATOM     17  C   UNL     1      -0.156   1.376   0.000  1.00  0.00    -0.006 C 
ATOM     18  C   UNL     1      -1.145  -1.456   0.000  1.00  0.00     0.032 C 
ATOM     19  C   UNL     1      -1.630   1.096   0.000  1.00  0.00    -0.064 C 
ATOM     20  C   UNL     1      -2.124  -0.320   0.000  1.00  0.00    -0.064 C 
ATOM     21  C   UNL     1      -2.609   2.232   0.000  1.00  0.00     0.032 C 
ATOM     22  C   UNL     1      -3.598  -0.600   0.000  1.00  0.00    -0.007 C 
ATOM     23  C   UNL     1      -4.083   1.952   0.000  1.00  0.00     0.010 C 
ATOM     24  C   UNL     1      -4.092  -2.016   0.000  1.00  0.00     0.019 C 
ATOM     25  C   UNL     1      -4.577   0.536   0.000  1.00  0.00     0.012 C 
ATOM     26  C   UNL     1      -5.566  -2.296   0.000  1.00  0.00     0.077 C 
ATOM     27  C   UNL     1      -6.051   0.256   0.000  1.00  0.00     0.027 C 
ATOM     28  C   UNL     1      -6.545  -1.160   0.000  1.00  0.00     0.138 C 
ATOM     29  C   UNL     1       1.916  -0.787   0.000  1.00  0.00     0.012 C 
ATOM     30  C   UNL     1      -1.012   2.609   0.000  1.00  0.00     0.017 C 
ATOM     31  C   UNL     1      -2.618  -1.736   0.000  1.00  0.00     0.016 C 
ATOM     32  C   UNL     1      -6.071   1.756   0.000  1.00  0.00     0.020 C 
ATOM     33  C   UNL     1      -7.531   0.497   0.000  1.00  0.00     0.020 C 
ATOM     34  O   UNL     1      -8.019  -1.440   0.000  1.00  0.00    -0.299 OA
ENDBRANCH   7  12
ENDBRANCH   1   7
TORSDOF 7
