REMARK SMILES COc1ccc([C@H]2COc3cc(O)ccc3C2)c(OC)c1
REMARK SMILES IDX 7 1 8 2 9 3 10 4 11 5 12 6 14 7 15 8 16 9 17 10 6 11 3 12
REMARK SMILES IDX 4 13 21 14 5 15 18 16 2 17 1 18 19 19 20 20 13 21
REMARK H PARENT 13 22
ROOT
ATOM      1  C   UNL     1       0.051  -0.133   0.000  1.00  0.00     0.065 C 
ATOM      2  C   UNL     1       0.587  -1.535   0.000  1.00  0.00     0.238 C 
ATOM      3  O   UNL     1       2.068  -1.771   0.000  1.00  0.00    -0.493 OA
ATOM      4  C   UNL     1       3.013  -0.607   0.000  1.00  0.00     0.126 A 
ATOM      5  C   UNL     1       4.495  -0.844   0.000  1.00  0.00     0.092 A 
ATOM      6  C   UNL     1       5.440   0.321   0.000  1.00  0.00     0.119 A 
ATOM      7  C   UNL     1       4.905   1.722   0.000  1.00  0.00     0.047 A 
ATOM      8  C   UNL     1       3.424   1.959   0.000  1.00  0.00     0.011 A 
ATOM      9  C   UNL     1       2.478   0.794   0.000  1.00  0.00    -0.005 A 
ATOM     10  C   UNL     1       0.997   1.031   0.000  1.00  0.00     0.051 C 
ENDROOT
BRANCH   1  11
ATOM     11  C   UNL     1      -1.430   0.103   0.000  1.00  0.00     0.001 A 
ATOM     12  C   UNL     1      -4.393   0.577   0.000  1.00  0.00     0.122 A 
ATOM     13  C   UNL     1      -3.447   1.741   0.000  1.00  0.00     0.047 A 
ATOM     14  C   UNL     1      -3.857  -0.824   0.000  1.00  0.00     0.093 A 
ATOM     15  C   UNL     1      -1.966   1.504   0.000  1.00  0.00     0.012 A 
ATOM     16  C   UNL     1      -2.376  -1.061   0.000  1.00  0.00     0.126 A 
BRANCH  12  17
ATOM     17  O   UNL     1      -5.874   0.814   0.000  1.00  0.00    -0.497 OA
ATOM     18  C   UNL     1      -6.409   2.215   0.000  1.00  0.00     0.278 C 
ENDBRANCH  12  17
BRANCH  16  19
ATOM     19  O   UNL     1      -1.840  -2.462   0.000  1.00  0.00    -0.496 OA
ATOM     20  C   UNL     1      -2.786  -3.627   0.000  1.00  0.00     0.278 C 
ENDBRANCH  16  19
ENDBRANCH   1  11
BRANCH   6  21
ATOM     21  O   UNL     1       6.921   0.084   0.000  1.00  0.00    -0.508 OA
ATOM     22  H   UNL     1       0.000   0.000   0.000  1.00  0.00     0.293 HD
ENDBRANCH   6  21
TORSDOF 4
