REMARK SMILES C=C(C)[C@@H]1CC[C@]2(C)CC[C@]3(C)[C@H](CC[C@@H]4[C@@](C)(CCC(=O)O)[C@H](C(=C)C)CC[C@]43C)[C@@H]12
REMARK SMILES IDX 19 1 17 2 4 3 5 4 32 5 6 6 13 7 7 8 11 9 14 10 9 11 10 12
REMARK SMILES IDX 30 13 15 14 29 15 16 16 28 17 24 18 8 19 12 20 31 21 18 22
REMARK SMILES IDX 2 23 1 24 3 25 25 26 26 27 27 28 20 29 21 30 22 31 23 32
REMARK H PARENT 23 33
ROOT
ATOM      1  C   UNL     1      -2.539  -1.144   0.000  1.00  0.00     0.019 C 
ENDROOT
BRANCH   1   2
ATOM      2  C   UNL     1      -2.704   0.347   0.000  1.00  0.00    -0.022 C 
ATOM      3  C   UNL     1       4.213  -1.216   0.000  1.00  0.00     0.018 C 
ATOM      4  C   UNL     1       5.620  -0.695   0.000  1.00  0.00     0.009 C 
ATOM      5  C   UNL     1       3.283  -0.039   0.000  1.00  0.00     0.006 C 
ATOM      6  C   UNL     1       5.559   0.804   0.000  1.00  0.00     0.008 C 
ATOM      7  C   UNL     1       1.786   0.058   0.000  1.00  0.00    -0.000 C 
ATOM      8  C   UNL     1       4.115   1.209   0.000  1.00  0.00    -0.029 C 
ATOM      9  C   UNL     1       1.121   1.402   0.000  1.00  0.00    -0.024 C 
ATOM     10  C   UNL     1       0.954  -1.191   0.000  1.00  0.00     0.005 C 
ATOM     11  C   UNL     1       3.450   2.554   0.000  1.00  0.00     0.007 C 
ATOM     12  C   UNL     1       1.953   2.650   0.000  1.00  0.00     0.008 C 
ATOM     13  C   UNL     1      -0.376   1.498   0.000  1.00  0.00    -0.024 C 
ATOM     14  C   UNL     1      -0.543  -1.094   0.000  1.00  0.00     0.005 C 
ATOM     15  C   UNL     1      -1.041   2.843   0.000  1.00  0.00     0.008 C 
ATOM     16  C   UNL     1      -1.208   0.250   0.000  1.00  0.00     0.002 C 
ATOM     17  C   UNL     1      -2.538   2.939   0.000  1.00  0.00     0.009 C 
ATOM     18  C   UNL     1      -3.369   1.691   0.000  1.00  0.00     0.020 C 
ATOM     19  C   UNL     1       5.073   2.364   0.000  1.00  0.00     0.011 C 
ATOM     20  C   UNL     1       0.456   2.747   0.000  1.00  0.00     0.012 C 
ATOM     21  C   UNL     1       0.289   0.154   0.000  1.00  0.00     0.012 C 
ATOM     22  C   UNL     1      -4.144  -0.074   0.000  1.00  0.00     0.012 C 
BRANCH   3  23
ATOM     23  C   UNL     1       3.808  -2.660   0.000  1.00  0.00    -0.077 C 
ATOM     24  C   UNL     1       2.354  -3.031   0.000  1.00  0.00     0.008 C 
ATOM     25  C   UNL     1       4.855  -3.733   0.000  1.00  0.00     0.039 C 
ENDBRANCH   3  23
BRANCH  18  26
ATOM     26  C   UNL     1      -4.866   1.788   0.000  1.00  0.00    -0.077 C 
ATOM     27  C   UNL     1      -5.698   0.540   0.000  1.00  0.00     0.008 C 
ATOM     28  C   UNL     1      -5.531   3.132   0.000  1.00  0.00     0.039 C 
ENDBRANCH  18  26
ENDBRANCH   1   2
BRANCH   1  29
ATOM     29  C   UNL     1      -3.748  -2.032   0.000  1.00  0.00     0.123 C 
BRANCH  29  30
ATOM     30  C   UNL     1      -3.583  -3.523   0.000  1.00  0.00     0.303 C 
ATOM     31  O   UNL     1      -2.210  -4.126   0.000  1.00  0.00    -0.252 OA
BRANCH  30  32
ATOM     32  O   UNL     1      -4.792  -4.412   0.000  1.00  0.00    -0.481 OA
ATOM     33  H   UNL     1       0.000   0.000   0.000  1.00  0.00     0.296 HD
ENDBRANCH  30  32
ENDBRANCH  29  30
ENDBRANCH   1  29
TORSDOF 6
