REMARK SMILES CC(=O)O[C@H]1C[C@@H](OC(C)=O)[C@@]2(C)CO[C@@H]3C2[C@@]1(C)C1CC[C@]2(C)C(=CC[C@H]2c2ccoc2)[C@]1(C)[C@@H]3OC(=O)/C=C/c1ccccc1
REMARK SMILES IDX 37 1 36 2 5 3 6 4 18 5 7 6 17 7 20 8 12 9 16 10 21 11 34 12
REMARK SMILES IDX 14 13 15 14 22 15 25 16 23 17 26 18 28 19 27 20 19 21 13 22
REMARK SMILES IDX 35 23 24 24 4 25 2 26 1 27 3 28 8 29 9 30 10 31 11 32 29 33
REMARK SMILES IDX 33 34 30 35 32 36 31 37 38 38 39 39 40 40 41 41 42 42 43 43
REMARK SMILES IDX 47 44 44 45 46 46 45 47
REMARK H PARENT
ROOT
ATOM      1  O   UNL     1      -2.216  -0.107   0.000  1.00  0.00    -0.455 OA
ENDROOT
BRANCH   1   2
ATOM      2  C   UNL     1      -0.727  -0.281   0.000  1.00  0.00     0.216 C 
ATOM      3  C   UNL     1       3.716  -0.959   0.000  1.00  0.00     0.186 C 
ATOM      4  C   UNL     1       4.163  -2.391   0.000  1.00  0.00     0.091 C 
ATOM      5  C   UNL     1       2.253  -0.630   0.000  1.00  0.00     0.015 C 
ATOM      6  C   UNL     1       3.146  -3.494   0.000  1.00  0.00     0.188 C 
ATOM      7  C   UNL     1       1.236  -1.733   0.000  1.00  0.00     0.044 C 
ATOM      8  C   UNL     1       1.659   0.747   0.000  1.00  0.00     0.013 C 
ATOM      9  C   UNL     1       1.683  -3.165   0.000  1.00  0.00     0.034 C 
ATOM     10  C   UNL     1      -0.264  -1.715   0.000  1.00  0.00     0.164 C 
ATOM     11  C   UNL     1       2.555   1.950   0.000  1.00  0.00     0.006 C 
ATOM     12  C   UNL     1       0.169   0.922   0.000  1.00  0.00     0.032 C 
ATOM     13  C   UNL     1       0.459  -4.032   0.000  1.00  0.00     0.171 C 
ATOM     14  O   UNL     1      -0.744  -3.136   0.000  1.00  0.00    -0.373 OA
ATOM     15  C   UNL     1       1.961   3.328   0.000  1.00  0.00     0.012 C 
ATOM     16  C   UNL     1      -0.425   2.299   0.000  1.00  0.00    -0.058 C 
ATOM     17  C   UNL     1       0.471   3.502   0.000  1.00  0.00    -0.004 C 
ATOM     18  C   UNL     1      -1.846   2.779   0.000  1.00  0.00    -0.026 C 
ATOM     19  C   UNL     1      -0.396   4.726   0.000  1.00  0.00     0.036 C 
ATOM     20  C   UNL     1      -1.828   4.279   0.000  1.00  0.00     0.036 C 
ATOM     21  C   UNL     1       2.202   0.254   0.000  1.00  0.00     0.016 C 
ATOM     22  C   UNL     1       1.978  -4.636   0.000  1.00  0.00     0.018 C 
ATOM     23  C   UNL     1      -1.321   1.096   0.000  1.00  0.00     0.020 C 
ATOM     24  C   UNL     1       1.236   4.792   0.000  1.00  0.00     0.017 C 
BRANCH   3  25
ATOM     25  O   UNL     1       4.733   0.144   0.000  1.00  0.00    -0.462 OA
BRANCH  25  26
ATOM     26  C   UNL     1       6.197  -0.185   0.000  1.00  0.00     0.302 C 
ATOM     27  C   UNL     1       7.213   0.917   0.000  1.00  0.00     0.139 C 
ATOM     28  O   UNL     1       6.643  -1.617   0.000  1.00  0.00    -0.253 OA
ENDBRANCH  25  26
ENDBRANCH   3  25
BRANCH   6  29
ATOM     29  O   UNL     1       3.593  -4.926   0.000  1.00  0.00    -0.462 OA
BRANCH  29  30
ATOM     30  C   UNL     1       5.057  -5.255   0.000  1.00  0.00     0.302 C 
ATOM     31  C   UNL     1       5.503  -6.687   0.000  1.00  0.00     0.139 C 
ATOM     32  O   UNL     1       6.073  -4.152   0.000  1.00  0.00    -0.253 OA
ENDBRANCH  29  30
ENDBRANCH   6  29
BRANCH  19  33
ATOM     33  C   UNL     1       0.084   6.147   0.000  1.00  0.00    -0.005 A 
ATOM     34  C   UNL     1      -0.783   7.371   0.000  1.00  0.00     0.198 A 
ATOM     35  C   UNL     1       1.516   6.594   0.000  1.00  0.00     0.046 A 
ATOM     36  O   UNL     1       0.113   8.574   0.000  1.00  0.00    -0.472 OA
ATOM     37  C   UNL     1       1.534   8.094   0.000  1.00  0.00     0.195 A 
ENDBRANCH  19  33
ENDBRANCH   1   2
BRANCH   1  38
ATOM     38  C   UNL     1      -3.112  -1.310   0.000  1.00  0.00     0.331 C 
ATOM     39  O   UNL     1      -2.518  -2.688   0.000  1.00  0.00    -0.247 OA
BRANCH  38  40
ATOM     40  C   UNL     1      -4.602  -1.136   0.000  1.00  0.00     0.094 C 
BRANCH  40  41
ATOM     41  C   UNL     1      -5.498  -2.339   0.000  1.00  0.00     0.015 C 
BRANCH  41  42
ATOM     42  C   UNL     1      -6.988  -2.164   0.000  1.00  0.00    -0.025 A 
ATOM     43  C   UNL     1      -7.582  -0.787   0.000  1.00  0.00     0.008 A 
ATOM     44  C   UNL     1      -7.884  -3.368   0.000  1.00  0.00     0.008 A 
ATOM     45  C   UNL     1      -9.072  -0.613   0.000  1.00  0.00     0.001 A 
ATOM     46  C   UNL     1      -9.374  -3.193   0.000  1.00  0.00     0.001 A 
ATOM     47  C   UNL     1      -9.968  -1.816   0.000  1.00  0.00     0.000 A 
ENDBRANCH  41  42
ENDBRANCH  40  41
ENDBRANCH  38  40
ENDBRANCH   1  38
TORSDOF 10
