REMARK SMILES CCOc1c(C)c(O)c2c(c1C)O[C@@H](c1ccc(O)c(OC)c1)CC2=O
REMARK SMILES IDX 4 1 5 2 6 3 7 4 9 5 25 6 26 7 24 8 14 9 13 10 10 11 11 12
REMARK SMILES IDX 12 13 3 14 2 15 1 16 8 17 15 19 16 20 23 21 17 22 20 23
REMARK SMILES IDX 18 24 21 25 22 26 19 27
REMARK H PARENT 8 18 19 28
ROOT
ATOM      1  C   UNL     1      -3.709   0.723   0.000  1.00  0.00     0.132 A 
ATOM      2  C   UNL     1      -4.185  -0.700   0.000  1.00  0.00     0.034 A 
ATOM      3  C   UNL     1      -5.655  -0.999   0.000  1.00  0.00     0.052 C 
ATOM      4  C   UNL     1      -3.191  -1.823   0.000  1.00  0.00     0.136 A 
ATOM      5  C   UNL     1      -1.721  -1.524   0.000  1.00  0.00     0.102 A 
ATOM      6  C   UNL     1      -0.727  -2.647   0.000  1.00  0.00     0.174 C 
ATOM      7  O   UNL     1      -1.202  -4.069   0.000  1.00  0.00    -0.294 OA
ATOM      8  C   UNL     1       0.743  -2.347   0.000  1.00  0.00     0.131 C 
ATOM      9  C   UNL     1       1.219  -0.924   0.000  1.00  0.00     0.211 C 
ATOM     10  O   UNL     1       0.225   0.199   0.000  1.00  0.00    -0.484 OA
ATOM     11  C   UNL     1      -1.245  -0.101   0.000  1.00  0.00     0.141 A 
ATOM     12  C   UNL     1      -2.240   1.022   0.000  1.00  0.00     0.034 A 
ATOM     13  C   UNL     1      -1.764   2.445   0.000  1.00  0.00     0.052 C 
ENDROOT
BRANCH   1  14
ATOM     14  O   UNL     1      -4.704   1.846   0.000  1.00  0.00    -0.493 OA
BRANCH  14  15
ATOM     15  C   UNL     1      -4.228   3.268   0.000  1.00  0.00     0.226 C 
ATOM     16  C   UNL     1      -5.223   4.392   0.000  1.00  0.00     0.049 C 
ENDBRANCH  14  15
ENDBRANCH   1  14
BRANCH   4  17
ATOM     17  O   UNL     1      -3.666  -3.246   0.000  1.00  0.00    -0.507 OA
ATOM     18  H   UNL     1       0.000   0.000   0.000  1.00  0.00     0.293 HD
ENDBRANCH   4  17
BRANCH   9  19
ATOM     19  C   UNL     1       2.688  -0.625   0.000  1.00  0.00    -0.003 A 
ATOM     20  C   UNL     1       3.683  -1.748   0.000  1.00  0.00     0.011 A 
ATOM     21  C   UNL     1       3.164   0.798   0.000  1.00  0.00     0.058 A 
ATOM     22  C   UNL     1       5.153  -1.448   0.000  1.00  0.00     0.050 A 
ATOM     23  C   UNL     1       4.634   1.097   0.000  1.00  0.00     0.160 A 
ATOM     24  C   UNL     1       5.628  -0.026   0.000  1.00  0.00     0.157 A 
BRANCH  23  25
ATOM     25  O   UNL     1       5.109   2.520   0.000  1.00  0.00    -0.493 OA
ATOM     26  C   UNL     1       4.115   3.643   0.000  1.00  0.00     0.278 C 
ENDBRANCH  23  25
BRANCH  24  27
ATOM     27  O   UNL     1       7.098   0.274   0.000  1.00  0.00    -0.504 OA
ATOM     28  H   UNL     1       0.000   0.000   0.000  1.00  0.00     0.293 HD
ENDBRANCH  24  27
ENDBRANCH   9  19
TORSDOF 6
