REMARK SMILES COc1c(O)cc([C@H]2Oc3cc(O)cc(O)c3C[C@H]2O)cc1O
REMARK SMILES IDX 8 1 9 2 10 3 11 4 12 5 14 6 15 7 17 8 18 9 19 10 7 11 3 12
REMARK SMILES IDX 4 13 22 14 6 15 21 16 2 17 1 18 5 19 23 21 20 23 13 25 16 27
REMARK H PARENT 5 20 23 22 20 24 13 26 16 28
ROOT
ATOM      1  C   UNL     1       0.089   0.245   0.000  1.00  0.00     0.233 C 
ATOM      2  O   UNL     1       1.055  -0.902   0.000  1.00  0.00    -0.482 OA
ATOM      3  C   UNL     1       2.532  -0.639   0.000  1.00  0.00     0.131 A 
ATOM      4  C   UNL     1       3.498  -1.786   0.000  1.00  0.00     0.093 A 
ATOM      5  C   UNL     1       4.975  -1.524   0.000  1.00  0.00     0.122 A 
ATOM      6  C   UNL     1       5.485  -0.113   0.000  1.00  0.00     0.092 A 
ATOM      7  C   UNL     1       4.519   1.034   0.000  1.00  0.00     0.126 A 
ATOM      8  C   UNL     1       3.042   0.771   0.000  1.00  0.00     0.039 A 
ATOM      9  C   UNL     1       2.076   1.919   0.000  1.00  0.00     0.079 C 
ATOM     10  C   UNL     1       0.599   1.656   0.000  1.00  0.00     0.164 C 
ENDROOT
BRANCH   1  11
ATOM     11  C   UNL     1      -1.388  -0.018   0.000  1.00  0.00     0.003 A 
ATOM     12  C   UNL     1      -4.341  -0.544   0.000  1.00  0.00     0.202 A 
ATOM     13  C   UNL     1      -3.831   0.867   0.000  1.00  0.00     0.162 A 
ATOM     14  C   UNL     1      -3.375  -1.691   0.000  1.00  0.00     0.162 A 
ATOM     15  C   UNL     1      -2.354   1.130   0.000  1.00  0.00     0.058 A 
ATOM     16  C   UNL     1      -1.899  -1.428   0.000  1.00  0.00     0.058 A 
BRANCH  12  17
ATOM     17  O   UNL     1      -5.818  -0.807   0.000  1.00  0.00    -0.490 OA
ATOM     18  C   UNL     1      -6.784   0.341   0.000  1.00  0.00     0.278 C 
ENDBRANCH  12  17
BRANCH  13  19
ATOM     19  O   UNL     1      -4.797   2.014   0.000  1.00  0.00    -0.504 OA
ATOM     20  H   UNL     1       0.000   0.000   0.000  1.00  0.00     0.293 HD
ENDBRANCH  13  19
BRANCH  14  21
ATOM     21  O   UNL     1      -3.886  -3.102   0.000  1.00  0.00    -0.504 OA
ATOM     22  H   UNL     1       0.000   0.000   0.000  1.00  0.00     0.293 HD
ENDBRANCH  14  21
ENDBRANCH   1  11
BRANCH  10  23
ATOM     23  O   UNL     1      -0.367   2.803   0.000  1.00  0.00    -0.389 OA
ATOM     24  H   UNL     1       0.000   0.000   0.000  1.00  0.00     0.211 HD
ENDBRANCH  10  23
BRANCH   5  25
ATOM     25  O   UNL     1       5.941  -2.671   0.000  1.00  0.00    -0.508 OA
ATOM     26  H   UNL     1       0.000   0.000   0.000  1.00  0.00     0.293 HD
ENDBRANCH   5  25
BRANCH   7  27
ATOM     27  O   UNL     1       5.030   2.445   0.000  1.00  0.00    -0.507 OA
ATOM     28  H   UNL     1       0.000   0.000   0.000  1.00  0.00     0.293 HD
ENDBRANCH   7  27
TORSDOF 7
