REMARK SMILES CC=C1CN(C)[C@H]2Cc3c([nH]c4ccccc34)[C@@H](c3c(OC)ccc4c5c([nH]c34)[C@@H]3C[C@H]4C[C@H](CC)[C@@H]3N(CC5)C4)C[C@@H]1[C@H]2C(=O)OC
REMARK SMILES IDX 9 1 10 2 11 3 12 4 13 5 14 6 15 7 16 8 17 9 8 11 7 12 3 13
REMARK SMILES IDX 4 14 43 15 5 16 44 17 6 18 2 20 1 21 45 22 46 23 47 24 48 25
REMARK SMILES IDX 18 26 19 27 29 28 20 29 28 30 25 31 23 32 27 33 26 34 24 35
REMARK SMILES IDX 21 37 22 38 30 39 37 40 31 41 34 42 38 43 32 44 33 45 41 46
REMARK SMILES IDX 35 47 36 48 39 49 40 51 42 53
REMARK H PARENT 11 10 28 36
REMARK Flexibility Score:  110.800
ROOT
ATOM      1  C   UNL     1       4.220  -0.476   0.000  1.00  0.00    -0.017 A 
ATOM      2  C   UNL     1       2.913  -1.214   0.000  1.00  0.00     0.027 A 
ATOM      3  N   UNL     1       3.211  -2.684   0.000  1.00  0.00    -0.358 N 
ATOM      4  C   UNL     1       4.701  -2.855   0.000  1.00  0.00     0.046 A 
ATOM      5  C   UNL     1       5.571  -4.077   0.000  1.00  0.00     0.026 A 
ATOM      6  C   UNL     1       7.065  -3.934   0.000  1.00  0.00     0.002 A 
ATOM      7  C   UNL     1       7.688  -2.570   0.000  1.00  0.00     0.001 A 
ATOM      8  C   UNL     1       6.818  -1.348   0.000  1.00  0.00     0.010 A 
ATOM      9  C   UNL     1       5.325  -1.490   0.000  1.00  0.00     0.003 A 
ATOM     10  H   UNL     1       0.000   0.000   0.000  1.00  0.00     0.166 HD
ENDROOT
BRANCH   1  11
ATOM     11  C   UNL     1       4.622   0.969   0.000  1.00  0.00     0.058 C 
BRANCH  11  12
ATOM     12  C   UNL     1       3.884   2.275   0.000  1.00  0.00     0.076 C 
ATOM     13  C   UNL     1       0.951   3.429   0.000  1.00  0.00    -0.056 C 
ATOM     14  C   UNL     1       2.150   4.330   0.000  1.00  0.00     0.115 C 
ATOM     15  C   UNL     1       1.133   1.940   0.000  1.00  0.00     0.033 CG1
ATOM     16  N   UNL     1       3.530   3.743   0.000  1.00  0.00    -0.298 NA
ATOM     17  C   UNL     1       2.439   2.677   0.000  1.00  0.00     0.124 C 
ATOM     18  C   UNL     1       4.729   4.645   0.000  1.00  0.00     0.106 C 
ATOM     19  G   UNL     1       0.731   0.495   0.000  1.00  0.00     0.000 G1
BRANCH  13  20
ATOM     20  C   UNL     1      -0.429   4.016   0.000  1.00  0.00    -0.030 C 
ATOM     21  C   UNL     1      -0.611   5.505   0.000  1.00  0.00     0.035 C 
ENDBRANCH  13  20
BRANCH  17  22
ATOM     22  C   UNL     1       2.257   4.166   0.000  1.00  0.00     0.310 C 
ATOM     23  O   UNL     1       0.877   4.754   0.000  1.00  0.00    -0.252 OA
BRANCH  22  24
ATOM     24  O   UNL     1       3.456   5.068   0.000  1.00  0.00    -0.469 OA
ATOM     25  C   UNL     1       3.275   6.557   0.000  1.00  0.00     0.282 C 
ENDBRANCH  22  24
ENDBRANCH  17  22
ENDBRANCH  11  12
ENDBRANCH   1  11
BRANCH   2  26
ATOM     26  C   UNL     1       1.468  -0.811   0.000  1.00  0.00     0.073 C 
BRANCH  26  27
ATOM     27  C   UNL     1       0.544  -1.993   0.000  1.00  0.00     0.027 A 
ATOM     28  C   UNL     1      -0.942  -1.783   0.000  1.00  0.00     0.054 A 
ATOM     29  C   UNL     1       1.105  -3.384   0.000  1.00  0.00     0.124 A 
ATOM     30  N   UNL     1      -1.779  -0.538   0.000  1.00  0.00    -0.358 N 
ATOM     31  C   UNL     1      -1.866  -2.964   0.000  1.00  0.00     0.003 A 
ATOM     32  C   UNL     1       0.180  -4.565   0.000  1.00  0.00     0.047 A 
ATOM     33  C   UNL     1      -3.221  -0.951   0.000  1.00  0.00     0.024 A 
ATOM     34  C   UNL     1      -3.275  -2.450   0.000  1.00  0.00    -0.018 A 
ATOM     35  C   UNL     1      -1.305  -4.355   0.000  1.00  0.00     0.014 A 
ATOM     36  H   UNL     1       0.000   0.000   0.000  1.00  0.00     0.166 HD
BRANCH  29  37
ATOM     37  O   UNL     1       2.590  -3.594   0.000  1.00  0.00    -0.496 OA
ATOM     38  C   UNL     1       3.151  -4.985   0.000  1.00  0.00     0.278 C 
ENDBRANCH  29  37
BRANCH  33  39
ATOM     39  C   UNL     1      -4.360   0.026   0.000  1.00  0.00     0.054 C 
ATOM     40  C   UNL     1      -5.833  -0.255   0.000  1.00  0.00     0.068 C 
ATOM     41  C   UNL     1      -5.721   0.658   0.000  1.00  0.00     0.016 C 
ATOM     42  C   UNL     1      -6.633   1.013   0.000  1.00  0.00     0.007 C 
ATOM     43  N   UNL     1      -6.532  -1.583   0.000  1.00  0.00    -0.299 NA
ATOM     44  C   UNL     1      -8.831  -0.373   0.000  1.00  0.00     0.004 C 
ATOM     45  C   UNL     1      -8.132   0.955   0.000  1.00  0.00     0.010 C 
ATOM     46  C   UNL     1      -8.031  -1.641   0.000  1.00  0.00     0.088 C 
BRANCH  42  47
ATOM     47  C   UNL     1      -5.935   2.341   0.000  1.00  0.00     0.002 C 
ATOM     48  C   UNL     1      -6.735   3.609   0.000  1.00  0.00     0.004 C 
ENDBRANCH  42  47
BRANCH  43  49
ATOM     49  C   UNL     1      -5.930  -2.957   0.000  1.00  0.00     0.089 CG0
ATOM     50  G   UNL     1      -4.481  -3.342   0.000  1.00  0.00     0.000 G0
ENDBRANCH  43  49
ENDBRANCH  33  39
BRANCH  34  51
ATOM     51  C   UNL     1      -4.481  -3.342   0.000  1.00  0.00     0.053 CG0
ATOM     52  G   UNL     1      -5.930  -2.957   0.000  1.00  0.00     0.000 G0
ENDBRANCH  34  51
ENDBRANCH  26  27
BRANCH  26  53
ATOM     53  C   UNL     1       0.731   0.495   0.000  1.00  0.00     0.024 CG1
ATOM     54  G   UNL     1       1.133   1.940   0.000  1.00  0.00     0.000 G1
ENDBRANCH  26  53
ENDBRANCH   2  26
TORSDOF 6
