REMARK SMILES COCc1ccc(COC(C)=O)c2c1C(=O)[C@H](OC(C)=O)[C@@H](C(C)(C)OC(C)=O)C2
REMARK SMILES IDX 4 1 5 2 6 3 7 4 13 5 14 6 15 7 16 8 17 9 22 10 30 11 3 12
REMARK SMILES IDX 2 13 1 14 8 15 9 16 10 17 11 18 12 19 18 20 19 21 20 22
REMARK SMILES IDX 21 23 23 24 24 25 25 26 26 27 27 28 28 29 29 30
REMARK H PARENT
ROOT
ATOM      1  C   UNL     1       1.467  -2.742   0.000  1.00  0.00    -0.011 A 
ATOM      2  C   UNL     1       0.443  -3.837   0.000  1.00  0.00     0.007 A 
ATOM      3  C   UNL     1      -1.018  -3.498   0.000  1.00  0.00     0.008 A 
ATOM      4  C   UNL     1      -1.455  -2.062   0.000  1.00  0.00    -0.007 A 
ATOM      5  C   UNL     1      -0.430  -0.967   0.000  1.00  0.00    -0.029 A 
ATOM      6  C   UNL     1       1.031  -1.307   0.000  1.00  0.00     0.031 A 
ATOM      7  C   UNL     1       2.056  -0.211   0.000  1.00  0.00     0.204 C 
ATOM      8  O   UNL     1       3.517  -0.551   0.000  1.00  0.00    -0.290 OA
ATOM      9  C   UNL     1       1.619   1.224   0.000  1.00  0.00     0.255 C 
ATOM     10  C   UNL     1       0.158   1.564   0.000  1.00  0.00     0.086 C 
ATOM     11  C   UNL     1      -0.867   0.468   0.000  1.00  0.00     0.048 C 
ENDROOT
BRANCH   1  12
ATOM     12  C   UNL     1       2.928  -3.081   0.000  1.00  0.00     0.196 C 
BRANCH  12  13
ATOM     13  O   UNL     1       3.365  -4.516   0.000  1.00  0.00    -0.380 OA
ATOM     14  C   UNL     1       4.826  -4.856   0.000  1.00  0.00     0.195 C 
ENDBRANCH  12  13
ENDBRANCH   1  12
BRANCH   4  15
ATOM     15  C   UNL     1      -2.916  -1.723   0.000  1.00  0.00     0.269 C 
BRANCH  15  16
ATOM     16  O   UNL     1      -3.941  -2.818   0.000  1.00  0.00    -0.461 OA
BRANCH  16  17
ATOM     17  C   UNL     1      -5.402  -2.478   0.000  1.00  0.00     0.302 C 
ATOM     18  C   UNL     1      -6.426  -3.574   0.000  1.00  0.00     0.139 C 
ATOM     19  O   UNL     1      -5.838  -1.043   0.000  1.00  0.00    -0.253 OA
ENDBRANCH  16  17
ENDBRANCH  15  16
ENDBRANCH   4  15
BRANCH   9  20
ATOM     20  O   UNL     1       2.644   2.319   0.000  1.00  0.00    -0.454 OA
BRANCH  20  21
ATOM     21  C   UNL     1       4.105   1.980   0.000  1.00  0.00     0.303 C 
ATOM     22  C   UNL     1       5.130   3.075   0.000  1.00  0.00     0.139 C 
ATOM     23  O   UNL     1       4.541   0.545   0.000  1.00  0.00    -0.253 OA
ENDBRANCH  20  21
ENDBRANCH   9  20
BRANCH  10  24
ATOM     24  C   UNL     1      -0.278   2.999   0.000  1.00  0.00     0.114 C 
ATOM     25  C   UNL     1      -1.713   2.562   0.000  1.00  0.00     0.057 C 
ATOM     26  C   UNL     1       1.157   3.435   0.000  1.00  0.00     0.057 C 
BRANCH  24  27
ATOM     27  O   UNL     1      -0.715   4.434   0.000  1.00  0.00    -0.459 OA
BRANCH  27  28
ATOM     28  C   UNL     1      -2.176   4.774   0.000  1.00  0.00     0.303 C 
ATOM     29  C   UNL     1      -2.612   6.209   0.000  1.00  0.00     0.139 C 
ATOM     30  O   UNL     1      -3.200   3.678   0.000  1.00  0.00    -0.253 OA
ENDBRANCH  27  28
ENDBRANCH  24  27
ENDBRANCH  10  24
TORSDOF 10
