REMARK SMILES COCc1ccc(CO)c2c1C(=O)[C@H](O)[C@@H](C(C)(C)O)C2
REMARK SMILES IDX 4 1 5 2 6 3 7 4 10 5 11 6 12 7 13 8 14 9 16 10 21 11 3 12
REMARK SMILES IDX 2 13 1 14 8 15 9 16 15 18 17 20 18 21 19 22 20 23
REMARK H PARENT 9 17 15 19 20 24
ROOT
ATOM      1  C   UNL     1      -2.295  -0.129   0.000  1.00  0.00    -0.011 A 
ATOM      2  C   UNL     1      -2.977   1.207   0.000  1.00  0.00     0.007 A 
ATOM      3  C   UNL     1      -2.161   2.466   0.000  1.00  0.00     0.007 A 
ATOM      4  C   UNL     1      -0.663   2.388   0.000  1.00  0.00    -0.019 A 
ATOM      5  C   UNL     1       0.019   1.052   0.000  1.00  0.00    -0.031 A 
ATOM      6  C   UNL     1      -0.797  -0.206   0.000  1.00  0.00     0.029 A 
ATOM      7  C   UNL     1      -0.116  -1.543   0.000  1.00  0.00     0.192 C 
ATOM      8  O   UNL     1      -0.932  -2.801   0.000  1.00  0.00    -0.291 OA
ATOM      9  C   UNL     1       1.383  -1.620   0.000  1.00  0.00     0.192 C 
ATOM     10  C   UNL     1       2.199  -0.361   0.000  1.00  0.00     0.061 C 
ATOM     11  C   UNL     1       1.517   0.975   0.000  1.00  0.00     0.046 C 
ENDROOT
BRANCH   1  12
ATOM     12  C   UNL     1      -3.111  -1.388   0.000  1.00  0.00     0.196 C 
BRANCH  12  13
ATOM     13  O   UNL     1      -4.609  -1.310   0.000  1.00  0.00    -0.380 OA
ATOM     14  C   UNL     1      -5.426  -2.569   0.000  1.00  0.00     0.195 C 
ENDBRANCH  12  13
ENDBRANCH   1  12
BRANCH   4  15
ATOM     15  C   UNL     1       0.153   3.647   0.000  1.00  0.00     0.192 C 
BRANCH  15  16
ATOM     16  O   UNL     1      -0.529   4.983   0.000  1.00  0.00    -0.392 OA
ATOM     17  H   UNL     1       0.000   0.000   0.000  1.00  0.00     0.211 HD
ENDBRANCH  15  16
ENDBRANCH   4  15
BRANCH   9  18
ATOM     18  O   UNL     1       2.064  -2.956   0.000  1.00  0.00    -0.385 OA
ATOM     19  H   UNL     1       0.000   0.000   0.000  1.00  0.00     0.211 HD
ENDBRANCH   9  18
BRANCH  10  20
ATOM     20  C   UNL     1       3.696  -0.439   0.000  1.00  0.00     0.065 C 
ATOM     21  C   UNL     1       3.774   1.059   0.000  1.00  0.00     0.042 C 
ATOM     22  C   UNL     1       3.619  -1.937   0.000  1.00  0.00     0.042 C 
BRANCH  20  23
ATOM     23  O   UNL     1       5.194  -0.516   0.000  1.00  0.00    -0.390 OA
ATOM     24  H   UNL     1       0.000   0.000   0.000  1.00  0.00     0.211 HD
ENDBRANCH  20  23
ENDBRANCH  10  20
TORSDOF 7
