REMARK SMILES CC1(C)CC[C@@]2(C)C(C1)C1=CCC3[C@@]4(C)CC[C@@H](O)C(C)(C)C4CC[C@@]3(C)[C@]1(C)C[C@@H]2O
REMARK SMILES IDX 1 1 2 2 3 3 4 4 5 5 6 6 7 7 8 8 9 9 10 10 11 11 12 12 13 13
REMARK SMILES IDX 14 14 15 15 16 16 17 17 18 18 20 19 21 20 22 21 23 22 24 23
REMARK SMILES IDX 25 24 26 25 27 26 28 27 29 28 30 29 31 30 32 31 19 33
REMARK H PARENT 32 32 19 34
ROOT
ATOM      1  C   UNL     1      -5.117  -3.153   0.000  1.00  0.00     0.011 C 
ATOM      2  C   UNL     1      -5.309  -1.665   0.000  1.00  0.00    -0.035 C 
ATOM      3  C   UNL     1      -6.741  -2.112   0.000  1.00  0.00     0.011 C 
ATOM      4  C   UNL     1      -5.998  -0.333   0.000  1.00  0.00     0.007 C 
ATOM      5  C   UNL     1      -5.189   0.930   0.000  1.00  0.00     0.010 C 
ATOM      6  C   UNL     1      -3.691   0.861   0.000  1.00  0.00     0.000 C 
ATOM      7  C   UNL     1      -4.380   2.193   0.000  1.00  0.00     0.015 C 
ATOM      8  C   UNL     1      -3.002  -0.471   0.000  1.00  0.00     0.024 C 
ATOM      9  C   UNL     1      -3.811  -1.734   0.000  1.00  0.00     0.015 C 
ATOM     10  C   UNL     1      -1.503  -0.540   0.000  1.00  0.00    -0.064 C 
ATOM     11  C   UNL     1      -0.814  -1.872   0.000  1.00  0.00    -0.027 C 
ATOM     12  C   UNL     1       0.685  -1.942   0.000  1.00  0.00     0.032 C 
ATOM     13  C   UNL     1       1.494  -0.678   0.000  1.00  0.00     0.006 C 
ATOM     14  C   UNL     1       2.992  -0.748   0.000  1.00  0.00    -0.025 C 
ATOM     15  C   UNL     1       2.183  -2.011   0.000  1.00  0.00     0.012 C 
ATOM     16  C   UNL     1       3.681  -2.080   0.000  1.00  0.00     0.010 C 
ATOM     17  C   UNL     1       5.180  -2.149   0.000  1.00  0.00     0.033 C 
ATOM     18  C   UNL     1       5.989  -0.886   0.000  1.00  0.00     0.120 C 
ATOM     19  C   UNL     1       5.300   0.446   0.000  1.00  0.00    -0.006 C 
ATOM     20  C   UNL     1       5.108   1.934   0.000  1.00  0.00     0.014 C 
ATOM     21  C   UNL     1       6.731   0.894   0.000  1.00  0.00     0.014 C 
ATOM     22  C   UNL     1       3.801   0.515   0.000  1.00  0.00     0.003 C 
ATOM     23  C   UNL     1       3.112   1.848   0.000  1.00  0.00     0.005 C 
ATOM     24  C   UNL     1       1.613   1.917   0.000  1.00  0.00     0.008 C 
ATOM     25  C   UNL     1       0.804   0.654   0.000  1.00  0.00    -0.020 C 
ATOM     26  C   UNL     1       0.115   1.986   0.000  1.00  0.00     0.012 C 
ATOM     27  C   UNL     1      -0.694   0.723   0.000  1.00  0.00    -0.003 C 
ATOM     28  C   UNL     1      -2.192   0.792   0.000  1.00  0.00     0.017 C 
ATOM     29  C   UNL     1      -1.383   2.055   0.000  1.00  0.00     0.044 C 
ATOM     30  C   UNL     1      -2.882   2.124   0.000  1.00  0.00     0.121 C 
ENDROOT
BRANCH  30  31
ATOM     31  O   UNL     1      -3.571   3.457   0.000  1.00  0.00    -0.393 OA
ATOM     32  H   UNL     1       0.000   0.000   0.000  1.00  0.00     0.210 HD
ENDBRANCH  30  31
BRANCH  18  33
ATOM     33  O   UNL     1       7.487  -0.955   0.000  1.00  0.00    -0.393 OA
ATOM     34  H   UNL     1       0.000   0.000   0.000  1.00  0.00     0.210 HD
ENDBRANCH  18  33
TORSDOF 2
