REMARK SMILES CC(=O)O[C@@H]1CC[C@]2(C)[C@H]3CC[C@@H]4[C@@H]([C@]5(C)CC[C@@H](C(C)(C)OC(C)=O)O5)CC[C@@]4(C)[C@]3(C)CC[C@H]2C1(C)C
REMARK SMILES IDX 15 1 16 2 17 3 18 4 19 5 27 6 14 7 5 8 6 9 37 10 7 11 36 12
REMARK SMILES IDX 8 13 35 14 10 15 34 16 11 17 32 18 12 19 30 20 13 21 29 22
REMARK SMILES IDX 28 23 38 24 39 25 9 26 33 27 31 28 4 29 2 30 1 31 3 32 20 33
REMARK SMILES IDX 21 34 22 35 23 36 24 37 25 38 26 39
REMARK H PARENT
ROOT
ATOM      1  C   UNL     1       3.500   1.220   0.000  1.00  0.00     0.069 C 
ATOM      2  C   UNL     1       2.341   2.171   0.000  1.00  0.00     0.042 C 
ATOM      3  C   UNL     1       4.325   2.473   0.000  1.00  0.00     0.038 C 
ATOM      4  C   UNL     1       5.772   2.075   0.000  1.00  0.00     0.039 C 
ATOM      5  C   UNL     1       5.840   0.576   0.000  1.00  0.00     0.162 C 
ATOM      6  O   UNL     1       4.436   0.048   0.000  1.00  0.00    -0.368 OA
ENDROOT
BRANCH   1   7
ATOM      7  C   UNL     1       2.433   0.166   0.000  1.00  0.00     0.025 C 
ATOM      8  C   UNL     1      -6.540   0.067   0.000  1.00  0.00     0.182 C 
ATOM      9  C   UNL     1      -5.850   1.399   0.000  1.00  0.00     0.046 C 
ATOM     10  C   UNL     1      -5.731  -1.196   0.000  1.00  0.00     0.005 C 
ATOM     11  C   UNL     1      -4.351   1.468   0.000  1.00  0.00     0.011 C 
ATOM     12  C   UNL     1      -4.232  -1.127   0.000  1.00  0.00     0.005 C 
ATOM     13  C   UNL     1      -3.543   0.205   0.000  1.00  0.00    -0.026 C 
ATOM     14  C   UNL     1      -3.424  -2.391   0.000  1.00  0.00     0.005 C 
ATOM     15  C   UNL     1      -2.044   0.273   0.000  1.00  0.00     0.002 C 
ATOM     16  C   UNL     1      -1.925  -2.322   0.000  1.00  0.00     0.008 C 
ATOM     17  C   UNL     1      -1.355   1.605   0.000  1.00  0.00     0.005 C 
ATOM     18  C   UNL     1      -1.236  -0.990   0.000  1.00  0.00    -0.024 C 
ATOM     19  C   UNL     1       0.144   1.674   0.000  1.00  0.00     0.005 C 
ATOM     20  C   UNL     1       0.263  -0.921   0.000  1.00  0.00    -0.024 C 
ATOM     21  C   UNL     1       0.953   0.411   0.000  1.00  0.00     0.001 C 
ATOM     22  C   UNL     1       1.317  -1.989   0.000  1.00  0.00     0.008 C 
ATOM     23  C   UNL     1       2.658  -1.317   0.000  1.00  0.00     0.007 C 
ATOM     24  C   UNL     1      -5.403  -2.660   0.000  1.00  0.00     0.015 C 
ATOM     25  C   UNL     1      -7.115  -1.773   0.000  1.00  0.00     0.015 C 
ATOM     26  C   UNL     1      -2.853   1.537   0.000  1.00  0.00     0.012 C 
ATOM     27  C   UNL     1      -2.734  -1.059   0.000  1.00  0.00     0.012 C 
ATOM     28  C   UNL     1      -0.284  -2.318   0.000  1.00  0.00     0.012 C 
BRANCH   8  29
ATOM     29  O   UNL     1      -8.038  -0.001   0.000  1.00  0.00    -0.462 OA
BRANCH  29  30
ATOM     30  C   UNL     1      -8.847   1.262   0.000  1.00  0.00     0.302 C 
ATOM     31  C   UNL     1     -10.345   1.193   0.000  1.00  0.00     0.139 C 
ATOM     32  O   UNL     1      -8.157   2.594   0.000  1.00  0.00    -0.253 OA
ENDBRANCH  29  30
ENDBRANCH   8  29
ENDBRANCH   1   7
BRANCH   5  33
ATOM     33  C   UNL     1       7.093  -0.249   0.000  1.00  0.00     0.133 C 
ATOM     34  C   UNL     1       7.918   1.004   0.000  1.00  0.00     0.059 C 
ATOM     35  C   UNL     1       6.268  -1.502   0.000  1.00  0.00     0.059 C 
BRANCH  33  36
ATOM     36  O   UNL     1       8.346  -1.074   0.000  1.00  0.00    -0.457 OA
BRANCH  36  37
ATOM     37  C   UNL     1       9.687  -0.402   0.000  1.00  0.00     0.303 C 
ATOM     38  C   UNL     1      10.939  -1.227   0.000  1.00  0.00     0.139 C 
ATOM     39  O   UNL     1       9.775   1.095   0.000  1.00  0.00    -0.253 OA
ENDBRANCH  36  37
ENDBRANCH  33  36
ENDBRANCH   5  33
TORSDOF 6
