REMARK SMILES C=C/C(C)=C\C[C@]1(C)[C@H](C)[C@@H](OC(=O)CCC)[C@H](OC(C)=O)[C@@]23C(=C[C@H](OC)C[C@@H]12)[C@@H](OC(C)=O)O[C@H]3OC(C)=O
REMARK SMILES IDX 7 1 8 2 9 3 10 4 11 5 18 6 23 7 24 8 25 9 26 10 29 11 30 12
REMARK SMILES IDX 31 13 36 14 37 15 6 16 5 17 3 18 4 19 2 20 1 21 12 22 13 23
REMARK SMILES IDX 14 24 15 25 16 26 17 27 19 28 20 29 21 30 22 31 27 32 28 33
REMARK SMILES IDX 38 34 39 35 40 36 41 37 32 38 33 39 34 40 35 41
REMARK H PARENT
ROOT
ATOM      1  C   UNL     1       1.349  -1.672   0.000  1.00  0.00    -0.019 C 
ATOM      2  C   UNL     1       1.619  -3.147   0.000  1.00  0.00     0.012 C 
ATOM      3  C   UNL     1       1.598  -0.193   0.000  1.00  0.00     0.037 C 
ATOM      4  C   UNL     1       3.004   0.330   0.000  1.00  0.00     0.012 C 
ATOM      5  C   UNL     1       0.442   0.763   0.000  1.00  0.00     0.222 C 
ATOM      6  C   UNL     1      -0.963   0.240   0.000  1.00  0.00     0.234 C 
ATOM      7  C   UNL     1      -1.213  -1.239   0.000  1.00  0.00     0.104 C 
ATOM      8  C   UNL     1      -2.619  -1.762   0.000  1.00  0.00     0.013 C 
ATOM      9  C   UNL     1      -2.869  -3.241   0.000  1.00  0.00     0.011 C 
ATOM     10  C   UNL     1      -1.713  -4.197   0.000  1.00  0.00     0.141 C 
ATOM     11  C   UNL     1      -0.307  -3.674   0.000  1.00  0.00     0.042 C 
ATOM     12  C   UNL     1      -0.057  -2.195   0.000  1.00  0.00     0.019 C 
ATOM     13  C   UNL     1      -3.551  -0.587   0.000  1.00  0.00     0.343 C 
ATOM     14  O   UNL     1      -2.721   0.663   0.000  1.00  0.00    -0.298 OA
ATOM     15  C   UNL     1      -1.276   0.260   0.000  1.00  0.00     0.329 C 
ENDROOT
BRANCH   1  16
ATOM     16  C   UNL     1       2.848  -1.661   0.000  1.00  0.00     0.035 C 
BRANCH  16  17
ATOM     17  C   UNL     1       3.608  -2.955   0.000  1.00  0.00    -0.023 C 
BRANCH  17  18
ATOM     18  C   UNL     1       5.108  -2.944   0.000  1.00  0.00    -0.056 C 
ATOM     19  C   UNL     1       5.867  -4.237   0.000  1.00  0.00     0.044 C 
BRANCH  18  20
ATOM     20  C   UNL     1       5.848  -1.639   0.000  1.00  0.00    -0.005 C 
ATOM     21  C   UNL     1       7.348  -1.629   0.000  1.00  0.00     0.009 C 
ENDBRANCH  18  20
ENDBRANCH  17  18
ENDBRANCH  16  17
ENDBRANCH   1  16
BRANCH   5  22
ATOM     22  O   UNL     1       0.692   2.242   0.000  1.00  0.00    -0.458 OA
BRANCH  22  23
ATOM     23  C   UNL     1       2.098   2.765   0.000  1.00  0.00     0.306 C 
ATOM     24  O   UNL     1       3.254   1.810   0.000  1.00  0.00    -0.252 OA
BRANCH  23  25
ATOM     25  C   UNL     1       2.348   4.244   0.000  1.00  0.00     0.122 C 
BRANCH  25  26
ATOM     26  C   UNL     1       3.754   4.768   0.000  1.00  0.00     0.008 C 
ATOM     27  C   UNL     1       4.004   6.247   0.000  1.00  0.00     0.004 C 
ENDBRANCH  25  26
ENDBRANCH  23  25
ENDBRANCH  22  23
ENDBRANCH   5  22
BRANCH   6  28
ATOM     28  O   UNL     1      -2.119   1.196   0.000  1.00  0.00    -0.457 OA
BRANCH  28  29
ATOM     29  C   UNL     1      -1.869   2.675   0.000  1.00  0.00     0.303 C 
ATOM     30  C   UNL     1      -3.025   3.631   0.000  1.00  0.00     0.139 C 
ATOM     31  O   UNL     1      -0.632   3.523   0.000  1.00  0.00    -0.253 OA
ENDBRANCH  28  29
ENDBRANCH   6  28
BRANCH  10  32
ATOM     32  O   UNL     1      -1.963  -5.676   0.000  1.00  0.00    -0.377 OA
ATOM     33  C   UNL     1      -3.369  -6.199   0.000  1.00  0.00     0.195 C 
ENDBRANCH  10  32
BRANCH  15  34
ATOM     34  O   UNL     1      -0.101   1.192   0.000  1.00  0.00    -0.435 OA
BRANCH  34  35
ATOM     35  C   UNL     1      -0.320   2.675   0.000  1.00  0.00     0.304 C 
ATOM     36  C   UNL     1       0.855   3.607   0.000  1.00  0.00     0.139 C 
ATOM     37  O   UNL     1      -1.540   3.549   0.000  1.00  0.00    -0.253 OA
ENDBRANCH  34  35
ENDBRANCH  15  34
BRANCH  13  38
ATOM     38  O   UNL     1      -5.050  -0.650   0.000  1.00  0.00    -0.432 OA
BRANCH  38  39
ATOM     39  C   UNL     1      -5.854   0.617   0.000  1.00  0.00     0.305 C 
ATOM     40  C   UNL     1      -7.352   0.553   0.000  1.00  0.00     0.139 C 
ATOM     41  O   UNL     1      -5.159   1.946   0.000  1.00  0.00    -0.253 OA
ENDBRANCH  38  39
ENDBRANCH  13  38
TORSDOF 15
