REMARK SMILES COc1cc2c(cc1CCCc1ccc(O)cc1O)OCO2
REMARK SMILES IDX 10 1 9 2 8 3 3 4 4 5 5 6 7 7 6 8 22 9 20 10 21 11 2 12 1 13
REMARK SMILES IDX 11 14 12 15 13 16 18 17 14 18 17 19 15 20 19 21 16 23
REMARK H PARENT 19 22 16 24
ROOT
ATOM      1  C   UNL     1       0.705   0.527   0.000  1.00  0.00     0.010 C 
ENDROOT
BRANCH   1   2
ATOM      2  C   UNL     1      -0.556   1.340   0.000  1.00  0.00     0.040 C 
BRANCH   2   3
ATOM      3  C   UNL     1      -1.890   0.654   0.000  1.00  0.00    -0.002 A 
ATOM      4  C   UNL     1      -3.151   1.467   0.000  1.00  0.00     0.126 A 
ATOM      5  C   UNL     1      -4.485   0.781   0.000  1.00  0.00     0.097 A 
ATOM      6  C   UNL     1      -4.558  -0.717   0.000  1.00  0.00     0.169 A 
ATOM      7  C   UNL     1      -1.963  -0.844   0.000  1.00  0.00     0.058 A 
ATOM      8  C   UNL     1      -3.298  -1.530   0.000  1.00  0.00     0.166 A 
ATOM      9  O   UNL     1      -5.721  -1.665   0.000  1.00  0.00    -0.453 OA
ATOM     10  O   UNL     1      -3.681  -2.980   0.000  1.00  0.00    -0.454 OA
ATOM     11  C   UNL     1      -5.178  -3.063   0.000  1.00  0.00     0.468 C 
BRANCH   4  12
ATOM     12  O   UNL     1      -3.078   2.965   0.000  1.00  0.00    -0.496 OA
ATOM     13  C   UNL     1      -4.338   3.778   0.000  1.00  0.00     0.278 C 
ENDBRANCH   4  12
ENDBRANCH   2   3
ENDBRANCH   1   2
BRANCH   1  14
ATOM     14  C   UNL     1       2.039   1.213   0.000  1.00  0.00     0.040 C 
BRANCH  14  15
ATOM     15  C   UNL     1       3.300   0.400   0.000  1.00  0.00    -0.006 A 
ATOM     16  C   UNL     1       3.227  -1.098   0.000  1.00  0.00     0.011 A 
ATOM     17  C   UNL     1       4.634   1.086   0.000  1.00  0.00     0.122 A 
ATOM     18  C   UNL     1       4.487  -1.911   0.000  1.00  0.00     0.047 A 
ATOM     19  C   UNL     1       5.895   0.273   0.000  1.00  0.00     0.092 A 
ATOM     20  C   UNL     1       5.822  -1.225   0.000  1.00  0.00     0.119 A 
BRANCH  17  21
ATOM     21  O   UNL     1       4.707   2.584   0.000  1.00  0.00    -0.508 OA
ATOM     22  H   UNL     1       0.000   0.000   0.000  1.00  0.00     0.293 HD
ENDBRANCH  17  21
BRANCH  20  23
ATOM     23  O   UNL     1       7.082  -2.038   0.000  1.00  0.00    -0.508 OA
ATOM     24  H   UNL     1       0.000   0.000   0.000  1.00  0.00     0.293 HD
ENDBRANCH  20  23
ENDBRANCH  14  15
ENDBRANCH   1  14
TORSDOF 7
