REMARK SMILES COc1ccc2ccc(=O)oc2c1C(C=O)=C(C)C
REMARK SMILES IDX 3 1 4 2 5 3 6 4 7 5 8 6 9 7 10 8 11 9 12 10 13 11 2 12 1 13
REMARK SMILES IDX 14 14 15 15 16 16 17 17 18 18 19 19
REMARK H PARENT
ROOT
ATOM      1  C   UNL     1      -1.277  -1.426   0.000  1.00  0.00     0.130 A 
ATOM      2  C   UNL     1      -0.610  -2.770   0.000  1.00  0.00     0.048 A 
ATOM      3  C   UNL     1       0.887  -2.865   0.000  1.00  0.00     0.016 A 
ATOM      4  C   UNL     1       1.717  -1.616   0.000  1.00  0.00     0.019 A 
ATOM      5  C   UNL     1       3.214  -1.710   0.000  1.00  0.00     0.019 A 
ATOM      6  C   UNL     1       4.045  -0.461   0.000  1.00  0.00     0.094 A 
ATOM      7  C   UNL     1       3.378   0.883   0.000  1.00  0.00     0.336 A 
ATOM      8  O   UNL     1       4.209   2.132   0.000  1.00  0.00    -0.246 OA
ATOM      9  O   UNL     1       1.881   0.977   0.000  1.00  0.00    -0.422 OA
ATOM     10  C   UNL     1       1.051  -0.272   0.000  1.00  0.00     0.150 A 
ATOM     11  C   UNL     1      -0.446  -0.177   0.000  1.00  0.00     0.070 A 
ENDROOT
BRANCH   1  12
ATOM     12  O   UNL     1      -2.774  -1.332   0.000  1.00  0.00    -0.496 OA
ATOM     13  C   UNL     1      -3.604  -2.581   0.000  1.00  0.00     0.278 C 
ENDBRANCH   1  12
BRANCH  11  14
ATOM     14  C   UNL     1      -1.113   1.167   0.000  1.00  0.00     0.028 C 
BRANCH  14  15
ATOM     15  C   UNL     1      -0.282   2.416   0.000  1.00  0.00     0.260 C 
ATOM     16  O   UNL     1      -0.949   3.759   0.000  1.00  0.00    -0.298 OA
ENDBRANCH  14  15
BRANCH  14  17
ATOM     17  C   UNL     1      -2.610   1.261   0.000  1.00  0.00    -0.065 C 
ATOM     18  C   UNL     1      -3.276   2.605   0.000  1.00  0.00     0.040 C 
ATOM     19  C   UNL     1      -3.440   0.012   0.000  1.00  0.00     0.040 C 
ENDBRANCH  14  17
ENDBRANCH  11  14
TORSDOF 4
