REMARK SMILES COc1cc2c(cc1OC)[C@]13C[C@@H](OC)C=CC1=CCN3C[C@@H]2O
REMARK SMILES IDX 3 1 4 2 5 3 6 4 7 5 8 6 11 7 12 8 13 9 16 10 17 11 18 12
REMARK SMILES IDX 19 13 20 14 21 15 22 16 23 17 2 18 1 19 9 20 10 21 24 22
REMARK SMILES IDX 14 24 15 25
REMARK H PARENT 24 23
ROOT
ATOM      1  C   UNL     1       2.322  -0.872   0.000  1.00  0.00     0.161 A 
ATOM      2  C   UNL     1       1.271  -1.942   0.000  1.00  0.00     0.057 A 
ATOM      3  C   UNL     1      -0.181  -1.566   0.000  1.00  0.00    -0.009 A 
ATOM      4  C   UNL     1      -0.582  -0.120   0.000  1.00  0.00    -0.013 A 
ATOM      5  C   UNL     1       0.469   0.949   0.000  1.00  0.00     0.056 A 
ATOM      6  C   UNL     1       1.922   0.574   0.000  1.00  0.00     0.161 A 
ATOM      7  C   UNL     1      -2.034   0.255   0.000  1.00  0.00     0.075 C 
ATOM      8  C   UNL     1      -0.859   0.810   0.000  1.00  0.00     0.069 C 
ATOM      9  C   UNL     1      -0.429   1.485   0.000  1.00  0.00     0.143 C 
ATOM     10  C   UNL     1      -0.798   2.195   0.000  1.00  0.00     0.005 C 
ATOM     11  C   UNL     1      -1.598   2.230   0.000  1.00  0.00     0.004 C 
ATOM     12  C   UNL     1      -2.727   1.585   0.000  1.00  0.00    -0.026 C 
ATOM     13  C   UNL     1      -4.206   1.338   0.000  1.00  0.00    -0.006 C 
ATOM     14  C   UNL     1      -4.428  -0.146   0.000  1.00  0.00     0.113 C 
ATOM     15  N   UNL     1      -3.086  -0.815   0.000  1.00  0.00    -0.283 NA
ATOM     16  C   UNL     1      -2.685  -2.260   0.000  1.00  0.00     0.122 C 
ATOM     17  C   UNL     1      -1.232  -2.636   0.000  1.00  0.00     0.159 C 
ENDROOT
BRANCH   1  18
ATOM     18  O   UNL     1       3.775  -1.247   0.000  1.00  0.00    -0.493 OA
ATOM     19  C   UNL     1       4.176  -2.693   0.000  1.00  0.00     0.278 C 
ENDBRANCH   1  18
BRANCH   6  20
ATOM     20  O   UNL     1       2.973   1.644   0.000  1.00  0.00    -0.493 OA
ATOM     21  C   UNL     1       4.425   1.268   0.000  1.00  0.00     0.278 C 
ENDBRANCH   6  20
BRANCH  17  22
ATOM     22  O   UNL     1      -0.832  -4.081   0.000  1.00  0.00    -0.387 OA
ATOM     23  H   UNL     1       0.000   0.000   0.000  1.00  0.00     0.211 HD
ENDBRANCH  17  22
BRANCH   9  24
ATOM     24  O   UNL     1       1.769   1.389   0.000  1.00  0.00    -0.377 OA
ATOM     25  C   UNL     1       2.575   2.654   0.000  1.00  0.00     0.195 C 
ENDBRANCH   9  24
TORSDOF 4
