REMARK SMILES COc1c(OC)c2occc2c2oc(=O)ccc12
REMARK SMILES IDX 3 1 4 2 7 3 11 4 10 5 9 6 8 7 12 8 18 9 17 10 16 11 14 12
REMARK SMILES IDX 15 13 13 14 2 15 1 16 5 17 6 18
REMARK H PARENT
ROOT
ATOM      1  C   UNL     1      -0.900   1.137   0.000  1.00  0.00     0.175 A 
ATOM      2  C   UNL     1      -1.814  -0.052   0.000  1.00  0.00     0.205 A 
ATOM      3  C   UNL     1      -1.242  -1.439   0.000  1.00  0.00     0.183 A 
ATOM      4  C   UNL     1       0.245  -1.636   0.000  1.00  0.00     0.068 A 
ATOM      5  C   UNL     1       0.517  -3.111   0.000  1.00  0.00     0.055 A 
ATOM      6  C   UNL     1      -0.802  -3.826   0.000  1.00  0.00     0.197 A 
ATOM      7  O   UNL     1      -1.889  -2.792   0.000  1.00  0.00    -0.460 OA
ATOM      8  C   UNL     1       1.160  -0.447   0.000  1.00  0.00     0.153 A 
ATOM      9  C   UNL     1       0.587   0.939   0.000  1.00  0.00     0.064 A 
ATOM     10  C   UNL     1       1.501   2.128   0.000  1.00  0.00     0.023 A 
ATOM     11  C   UNL     1       2.988   1.931   0.000  1.00  0.00     0.095 A 
ATOM     12  C   UNL     1       3.561   0.545   0.000  1.00  0.00     0.336 A 
ATOM     13  O   UNL     1       5.048   0.347   0.000  1.00  0.00    -0.246 OA
ATOM     14  O   UNL     1       2.647  -0.644   0.000  1.00  0.00    -0.422 OA
ENDROOT
BRANCH   1  15
ATOM     15  O   UNL     1      -1.472   2.523   0.000  1.00  0.00    -0.492 OA
ATOM     16  C   UNL     1      -2.959   2.720   0.000  1.00  0.00     0.278 C 
ENDBRANCH   1  15
BRANCH   2  17
ATOM     17  O   UNL     1      -3.301   0.145   0.000  1.00  0.00    -0.490 OA
ATOM     18  C   UNL     1      -3.874   1.531   0.000  1.00  0.00     0.278 C 
ENDBRANCH   2  17
TORSDOF 2
