REMARK SMILES COc1c2ccccc2nc2occc12
REMARK SMILES IDX 1 1 2 2 3 3 4 4 15 5 5 6 9 7 11 8 14 9 6 10 8 11 10 12 12 13
REMARK SMILES IDX 13 14 7 15
REMARK H PARENT
ROOT
ATOM      1  C   UNL     1      -1.900  -3.075   0.000  1.00  0.00     0.278 C 
ATOM      2  O   UNL     1      -0.513  -2.504   0.000  1.00  0.00    -0.495 OA
ENDROOT
BRANCH   2   3
ATOM      3  C   UNL     1      -0.313  -1.017   0.000  1.00  0.00     0.141 A 
ATOM      4  C   UNL     1       1.074  -0.447   0.000  1.00  0.00     0.043 A 
ATOM      5  C   UNL     1      -1.501  -0.102   0.000  1.00  0.00     0.083 A 
ATOM      6  C   UNL     1       2.262  -1.363   0.000  1.00  0.00     0.014 A 
ATOM      7  C   UNL     1       1.273   1.040   0.000  1.00  0.00     0.078 A 
ATOM      8  C   UNL     1      -1.302   1.385   0.000  1.00  0.00     0.230 A 
ATOM      9  C   UNL     1      -2.977  -0.371   0.000  1.00  0.00     0.056 A 
ATOM     10  C   UNL     1       3.649  -0.792   0.000  1.00  0.00     0.001 A 
ATOM     11  C   UNL     1       2.660   1.611   0.000  1.00  0.00     0.029 A 
ATOM     12  N   UNL     1       0.085   1.956   0.000  1.00  0.00    -0.212 NA
ATOM     13  O   UNL     1      -2.655   2.034   0.000  1.00  0.00    -0.446 OA
ATOM     14  C   UNL     1      -3.689   0.949   0.000  1.00  0.00     0.198 A 
ATOM     15  C   UNL     1       3.848   0.695   0.000  1.00  0.00     0.002 A 
ENDBRANCH   2   3
TORSDOF 1
