REMARK SMILES COc1cc(OC)c2c(c1)O[C@H](c1ccccc1)[C@@H](O)C2=O
REMARK SMILES IDX 3 1 4 2 5 3 8 4 21 5 22 6 19 7 12 8 11 9 9 10 10 11 2 12
REMARK SMILES IDX 1 13 6 14 7 15 13 16 14 17 18 18 15 19 17 20 16 21 20 22
REMARK H PARENT 20 23
ROOT
ATOM      1  C   UNL     1      -3.302  -1.671   0.000  1.00  0.00     0.126 A 
ATOM      2  C   UNL     1      -3.775  -0.248   0.000  1.00  0.00     0.093 A 
ATOM      3  C   UNL     1      -2.779   0.873   0.000  1.00  0.00     0.137 A 
ATOM      4  C   UNL     1      -1.310   0.571   0.000  1.00  0.00     0.105 A 
ATOM      5  C   UNL     1      -0.313   1.692   0.000  1.00  0.00     0.202 C 
ATOM      6  O   UNL     1      -0.786   3.116   0.000  1.00  0.00    -0.291 OA
ATOM      7  C   UNL     1       1.156   1.390   0.000  1.00  0.00     0.231 C 
ATOM      8  C   UNL     1       1.629  -0.034   0.000  1.00  0.00     0.240 C 
ATOM      9  O   UNL     1       0.632  -1.155   0.000  1.00  0.00    -0.481 OA
ATOM     10  C   UNL     1      -0.837  -0.853   0.000  1.00  0.00     0.138 A 
ATOM     11  C   UNL     1      -1.833  -1.974   0.000  1.00  0.00     0.093 A 
ENDROOT
BRANCH   1  12
ATOM     12  O   UNL     1      -4.299  -2.793   0.000  1.00  0.00    -0.496 OA
ATOM     13  C   UNL     1      -5.768  -2.490   0.000  1.00  0.00     0.278 C 
ENDBRANCH   1  12
BRANCH   3  14
ATOM     14  O   UNL     1      -3.252   2.297   0.000  1.00  0.00    -0.496 OA
ATOM     15  C   UNL     1      -4.721   2.599   0.000  1.00  0.00     0.278 C 
ENDBRANCH   3  14
BRANCH   8  16
ATOM     16  C   UNL     1       3.098  -0.336   0.000  1.00  0.00    -0.005 A 
ATOM     17  C   UNL     1       3.571  -1.760   0.000  1.00  0.00     0.007 A 
ATOM     18  C   UNL     1       4.095   0.785   0.000  1.00  0.00     0.007 A 
ATOM     19  C   UNL     1       5.040  -2.062   0.000  1.00  0.00     0.000 A 
ATOM     20  C   UNL     1       5.564   0.483   0.000  1.00  0.00     0.000 A 
ATOM     21  C   UNL     1       6.037  -0.941   0.000  1.00  0.00     0.000 A 
ENDBRANCH   8  16
BRANCH   7  22
ATOM     22  O   UNL     1       2.152   2.511   0.000  1.00  0.00    -0.381 OA
ATOM     23  H   UNL     1       0.000   0.000   0.000  1.00  0.00     0.211 HD
ENDBRANCH   7  22
TORSDOF 4
