REMARK SMILES O=C(O)c1ccc(O)cc1
REMARK SMILES IDX 4 1 5 2 6 3 7 4 9 5 10 6 2 7 1 8 3 9 8 11
REMARK H PARENT 3 10 8 12
ROOT
ATOM      1  C   UNL     1       0.750  -0.000   0.000  1.00  0.00     0.060 A 
ATOM      2  C   UNL     1      -0.000  -1.299   0.000  1.00  0.00     0.019 A 
ATOM      3  C   UNL     1      -1.500  -1.299   0.000  1.00  0.00     0.047 A 
ATOM      4  C   UNL     1      -2.250   0.000   0.000  1.00  0.00     0.115 A 
ATOM      5  C   UNL     1      -1.500   1.299   0.000  1.00  0.00     0.047 A 
ATOM      6  C   UNL     1       0.000   1.299   0.000  1.00  0.00     0.019 A 
ENDROOT
BRANCH   1   7
ATOM      7  C   UNL     1       2.250   0.000   0.000  1.00  0.00     0.335 C 
ATOM      8  O   UNL     1       3.000   1.299   0.000  1.00  0.00    -0.246 OA
BRANCH   7   9
ATOM      9  O   UNL     1       3.000  -1.299   0.000  1.00  0.00    -0.478 OA
ATOM     10  H   UNL     1       0.000   0.000   0.000  1.00  0.00     0.297 HD
ENDBRANCH   7   9
ENDBRANCH   1   7
BRANCH   4  11
ATOM     11  O   UNL     1      -3.750   0.000   0.000  1.00  0.00    -0.508 OA
ATOM     12  H   UNL     1       0.000   0.000   0.000  1.00  0.00     0.293 HD
ENDBRANCH   4  11
TORSDOF 3
