REMARK SMILES CC(C)C[C@@H]1NC(=O)[C@@H]2CCCN2C1=O
REMARK SMILES IDX 4 1 2 2 1 3 3 4 5 5 6 6 14 7 7 8 13 9 9 10 12 11 10 12 11 13
REMARK SMILES IDX 15 15 8 16
REMARK H PARENT 6 14
ROOT
ATOM      1  C   UNL     1       2.341   0.942   0.000  1.00  0.00     0.038 C 
ENDROOT
BRANCH   1   2
ATOM      2  C   UNL     1       3.505  -0.004   0.000  1.00  0.00    -0.015 C 
ATOM      3  C   UNL     1       4.907   0.531   0.000  1.00  0.00     0.007 C 
ATOM      4  C   UNL     1       3.268  -1.486   0.000  1.00  0.00     0.007 C 
ENDBRANCH   1   2
BRANCH   1   5
ATOM      5  C   UNL     1       0.940   0.406   0.000  1.00  0.00     0.171 C 
ATOM      6  N   UNL     1       0.703  -1.075   0.000  1.00  0.00    -0.342 N 
ATOM      7  C   UNL     1      -0.224   1.353   0.000  1.00  0.00     0.245 C 
ATOM      8  C   UNL     1      -0.699  -1.610   0.000  1.00  0.00     0.243 C 
ATOM      9  N   UNL     1      -1.626   0.817   0.000  1.00  0.00    -0.329 N 
ATOM     10  C   UNL     1      -1.863  -0.664   0.000  1.00  0.00     0.174 C 
ATOM     11  C   UNL     1      -2.961   1.501   0.000  1.00  0.00     0.120 C 
ATOM     12  C   UNL     1      -3.345  -0.896   0.000  1.00  0.00     0.037 C 
ATOM     13  C   UNL     1      -4.023   0.442   0.000  1.00  0.00     0.024 C 
ATOM     14  H   UNL     1       0.000   0.000   0.000  1.00  0.00     0.164 HD
ATOM     15  O   UNL     1       0.013   2.834   0.000  1.00  0.00    -0.272 OA
ATOM     16  O   UNL     1      -0.936  -3.091   0.000  1.00  0.00    -0.273 OA
ENDBRANCH   1   5
TORSDOF 2
