REMARK SMILES CC(C)NC[C@@H](O)COc1ccc(O)c2ccccc12
REMARK SMILES IDX 6 1 5 2 4 3 2 5 1 6 3 7 7 8 8 10 9 11 10 12 11 13 20 14
REMARK SMILES IDX 12 15 19 16 15 17 13 18 18 19 16 20 17 21 14 22
REMARK H PARENT 4 4 7 9 14 23
ROOT
ATOM      1  C   UNL     1      -2.660   0.501   0.000  1.00  0.00     0.165 C 
ENDROOT
BRANCH   1   2
ATOM      2  C   UNL     1      -3.963  -0.242   0.000  1.00  0.00     0.116 C 
BRANCH   2   3
ATOM      3  N   UNL     1      -5.258   0.515   0.000  1.00  0.00    -0.312 NA
ATOM      4  H   UNL     1       0.000   0.000   0.000  1.00  0.00     0.123 HD
BRANCH   3   5
ATOM      5  C   UNL     1      -6.561  -0.228   0.000  1.00  0.00     0.047 C 
ATOM      6  C   UNL     1      -7.856   0.528   0.000  1.00  0.00     0.024 C 
ATOM      7  C   UNL     1      -6.569  -1.728   0.000  1.00  0.00     0.024 C 
ENDBRANCH   3   5
ENDBRANCH   2   3
ENDBRANCH   1   2
BRANCH   1   8
ATOM      8  O   UNL     1      -2.653   2.001   0.000  1.00  0.00    -0.388 OA
ATOM      9  H   UNL     1       0.000   0.000   0.000  1.00  0.00     0.211 HD
ENDBRANCH   1   8
BRANCH   1  10
ATOM     10  C   UNL     1      -1.365  -0.255   0.000  1.00  0.00     0.262 C 
BRANCH  10  11
ATOM     11  O   UNL     1      -0.062   0.488   0.000  1.00  0.00    -0.490 OA
BRANCH  11  12
ATOM     12  C   UNL     1       1.233  -0.269   0.000  1.00  0.00     0.127 A 
ATOM     13  C   UNL     1       1.225  -1.769   0.000  1.00  0.00     0.051 A 
ATOM     14  C   UNL     1       2.536   0.474   0.000  1.00  0.00     0.027 A 
ATOM     15  C   UNL     1       2.520  -2.526   0.000  1.00  0.00     0.050 A 
ATOM     16  C   UNL     1       2.543   1.974   0.000  1.00  0.00     0.013 A 
ATOM     17  C   UNL     1       3.831  -0.282   0.000  1.00  0.00     0.027 A 
ATOM     18  C   UNL     1       3.823  -1.782   0.000  1.00  0.00     0.123 A 
ATOM     19  C   UNL     1       3.846   2.718   0.000  1.00  0.00     0.001 A 
ATOM     20  C   UNL     1       5.134   0.461   0.000  1.00  0.00     0.013 A 
ATOM     21  C   UNL     1       5.141   1.961   0.000  1.00  0.00     0.001 A 
BRANCH  18  22
ATOM     22  O   UNL     1       5.118  -2.539   0.000  1.00  0.00    -0.507 OA
ATOM     23  H   UNL     1       0.000   0.000   0.000  1.00  0.00     0.293 HD
ENDBRANCH  18  22
ENDBRANCH  11  12
ENDBRANCH  10  11
ENDBRANCH   1  10
TORSDOF 8
