REMARK SMILES COc1c(OC)c(O)c2c(=O)cc(-c3ccc(O)cc3)oc2c1OC
REMARK SMILES IDX 3 1 4 2 7 3 9 4 10 5 11 6 12 7 13 8 21 9 22 10 23 11 2 12
REMARK SMILES IDX 1 13 5 14 6 15 24 16 25 17 8 18 14 20 15 21 20 22 16 23
REMARK SMILES IDX 19 24 17 25 18 26
REMARK H PARENT 8 19 18 27
ROOT
ATOM      1  C   UNL     1      -3.308   0.906   0.000  1.00  0.00     0.211 A 
ATOM      2  C   UNL     1      -3.730  -0.534   0.000  1.00  0.00     0.208 A 
ATOM      3  C   UNL     1      -2.694  -1.619   0.000  1.00  0.00     0.177 A 
ATOM      4  C   UNL     1      -1.236  -1.264   0.000  1.00  0.00     0.114 A 
ATOM      5  C   UNL     1      -0.200  -2.348   0.000  1.00  0.00     0.197 A 
ATOM      6  O   UNL     1      -0.622  -3.788   0.000  1.00  0.00    -0.289 OA
ATOM      7  C   UNL     1       1.257  -1.994   0.000  1.00  0.00     0.100 A 
ATOM      8  C   UNL     1       1.679  -0.554   0.000  1.00  0.00     0.138 A 
ATOM      9  O   UNL     1       0.643   0.531   0.000  1.00  0.00    -0.452 OA
ATOM     10  C   UNL     1      -0.815   0.176   0.000  1.00  0.00     0.188 A 
ATOM     11  C   UNL     1      -1.851   1.261   0.000  1.00  0.00     0.209 A 
ENDROOT
BRANCH   1  12
ATOM     12  O   UNL     1      -4.344   1.990   0.000  1.00  0.00    -0.490 OA
ATOM     13  C   UNL     1      -3.923   3.430   0.000  1.00  0.00     0.279 C 
ENDBRANCH   1  12
BRANCH   2  14
ATOM     14  O   UNL     1      -5.187  -0.889   0.000  1.00  0.00    -0.490 OA
ATOM     15  C   UNL     1      -6.223   0.196   0.000  1.00  0.00     0.278 C 
ENDBRANCH   2  14
BRANCH  11  16
ATOM     16  O   UNL     1      -1.429   2.700   0.000  1.00  0.00    -0.490 OA
ATOM     17  C   UNL     1       0.028   3.055   0.000  1.00  0.00     0.278 C 
ENDBRANCH  11  16
BRANCH   3  18
ATOM     18  O   UNL     1      -3.115  -3.058   0.000  1.00  0.00    -0.504 OA
ATOM     19  H   UNL     1       0.000   0.000   0.000  1.00  0.00     0.293 HD
ENDBRANCH   3  18
BRANCH   8  20
ATOM     20  C   UNL     1       3.136  -0.199   0.000  1.00  0.00     0.018 A 
ATOM     21  C   UNL     1       4.172  -1.284   0.000  1.00  0.00     0.016 A 
ATOM     22  C   UNL     1       3.558   1.241   0.000  1.00  0.00     0.016 A 
ATOM     23  C   UNL     1       5.630  -0.929   0.000  1.00  0.00     0.047 A 
ATOM     24  C   UNL     1       5.015   1.595   0.000  1.00  0.00     0.047 A 
ATOM     25  C   UNL     1       6.051   0.511   0.000  1.00  0.00     0.115 A 
BRANCH  25  26
ATOM     26  O   UNL     1       7.508   0.866   0.000  1.00  0.00    -0.508 OA
ATOM     27  H   UNL     1       0.000   0.000   0.000  1.00  0.00     0.293 HD
ENDBRANCH  25  26
ENDBRANCH   8  20
TORSDOF 6
