REMARK SMILES COc1ccc2c(OC)c3ccoc3nc2c1OC
REMARK SMILES IDX 3 1 4 2 5 3 6 4 7 5 10 6 11 7 12 8 13 9 14 10 15 11 16 12
REMARK SMILES IDX 17 13 2 14 1 15 18 16 19 17 8 18 9 19
REMARK H PARENT
ROOT
ATOM      1  C   UNL     1       2.843  -0.404   0.000  1.00  0.00     0.163 A 
ATOM      2  C   UNL     1       2.311  -1.806   0.000  1.00  0.00     0.051 A 
ATOM      3  C   UNL     1       0.830  -2.046   0.000  1.00  0.00     0.018 A 
ATOM      4  C   UNL     1      -0.118  -0.884   0.000  1.00  0.00     0.047 A 
ATOM      5  C   UNL     1      -1.599  -1.124   0.000  1.00  0.00     0.141 A 
ATOM      6  C   UNL     1      -2.547   0.038   0.000  1.00  0.00     0.083 A 
ATOM      7  C   UNL     1      -4.045   0.111   0.000  1.00  0.00     0.056 A 
ATOM      8  C   UNL     1      -4.439   1.558   0.000  1.00  0.00     0.198 A 
ATOM      9  O   UNL     1      -3.184   2.380   0.000  1.00  0.00    -0.446 OA
ATOM     10  C   UNL     1      -2.015   1.440   0.000  1.00  0.00     0.230 A 
ATOM     11  N   UNL     1      -0.534   1.681   0.000  1.00  0.00    -0.208 NA
ATOM     12  C   UNL     1       0.414   0.518   0.000  1.00  0.00     0.124 A 
ATOM     13  C   UNL     1       1.895   0.758   0.000  1.00  0.00     0.187 A 
ENDROOT
BRANCH   1  14
ATOM     14  O   UNL     1       4.324  -0.164   0.000  1.00  0.00    -0.493 OA
ATOM     15  C   UNL     1       5.272  -1.326   0.000  1.00  0.00     0.278 C 
ENDBRANCH   1  14
BRANCH  13  16
ATOM     16  O   UNL     1       2.427   2.161   0.000  1.00  0.00    -0.491 OA
ATOM     17  C   UNL     1       3.908   2.401   0.000  1.00  0.00     0.278 C 
ENDBRANCH  13  16
BRANCH   5  18
ATOM     18  O   UNL     1      -2.131  -2.526   0.000  1.00  0.00    -0.495 OA
ATOM     19  C   UNL     1      -3.612  -2.767   0.000  1.00  0.00     0.278 C 
ENDBRANCH   5  18
TORSDOF 3
