REMARK SMILES C=C1[C@H]2CC[C@@H]3[C@H]2C(C)(C)CCC[C@]13C
REMARK SMILES IDX 1 1 2 2 3 3 4 4 5 5 6 6 7 7 14 8 15 9 13 10 12 11 8 13 9 14
REMARK SMILES IDX 10 15 11 16
REMARK H PARENT
REMARK Flexibility Score:    3.900
ROOT
ATOM      1  C   UNL     1      -3.004  -0.317   0.000  1.00  0.00     0.009 C 
ATOM      2  C   UNL     1      -1.524  -0.563   0.000  1.00  0.00    -0.068 C 
ATOM      3  C   UNL     1      -0.854  -1.905   0.000  1.00  0.00     0.019 C 
ATOM      4  C   UNL     1      -2.249  -1.354   0.000  1.00  0.00     0.008 C 
ATOM      5  C   UNL     1      -2.156   0.143   0.000  1.00  0.00     0.005 C 
ATOM      6  C   UNL     1      -0.703   0.517   0.000  1.00  0.00     0.003 C 
ATOM      7  C   UNL     1       0.101  -0.749   0.000  1.00  0.00     0.006 C 
ATOM      8  C   UNL     1      -0.215   1.935   0.000  1.00  0.00    -0.008 C 
ATOM      9  C   UNL     1      -1.280   2.991   0.000  1.00  0.00     0.016 C 
ENDROOT
BRANCH   8  10
ATOM     10  C   UNL     1       1.199   2.438   0.000  1.00  0.00     0.011 C 
BRANCH  10  11
ATOM     11  C   UNL     1       2.473   1.646   0.000  1.00  0.00     0.001 CG0
ATOM     12  G   UNL     1       2.648   0.156   0.000  1.00  0.00     0.000 G0
ENDBRANCH  10  11
ENDBRANCH   8  10
BRANCH   7  13
ATOM     13  C   UNL     1       1.593  -0.909   0.000  1.00  0.00    -0.032 C 
ATOM     14  C   UNL     1       1.105  -2.328   0.000  1.00  0.00     0.011 C 
ATOM     15  C   UNL     1       2.867  -1.701   0.000  1.00  0.00     0.011 C 
BRANCH  13  16
ATOM     16  C   UNL     1       2.648   0.156   0.000  1.00  0.00     0.007 CG0
ATOM     17  G   UNL     1       2.473   1.646   0.000  1.00  0.00     0.000 G0
ENDBRANCH  13  16
ENDBRANCH   7  13
TORSDOF 0
