REMARK SMILES C=C(C)[C@H]1Cc2c(ccc3c(=O)c4c(oc23)COc2cc(OC)c(OC)cc2-4)O1
REMARK SMILES IDX 4 1 5 2 6 3 7 4 8 5 9 6 10 7 16 8 15 9 14 10 13 11 28 12
REMARK SMILES IDX 27 13 24 14 21 15 20 16 19 17 18 18 17 19 11 20 12 21 29 22
REMARK SMILES IDX 2 23 1 24 3 25 25 26 26 27 22 28 23 29
REMARK H PARENT
ROOT
ATOM      1  C   UNL     1      -5.919  -0.254   0.000  1.00  0.00     0.203 C 
ATOM      2  C   UNL     1      -4.586  -0.942   0.000  1.00  0.00     0.093 C 
ATOM      3  C   UNL     1      -3.520   0.113   0.000  1.00  0.00     0.042 A 
ATOM      4  C   UNL     1      -4.193   1.453   0.000  1.00  0.00     0.127 A 
ATOM      5  C   UNL     1      -3.369   2.706   0.000  1.00  0.00     0.048 A 
ATOM      6  C   UNL     1      -1.872   2.619   0.000  1.00  0.00     0.020 A 
ATOM      7  C   UNL     1      -1.198   1.279   0.000  1.00  0.00     0.066 A 
ATOM      8  C   UNL     1      -2.022   0.026   0.000  1.00  0.00     0.145 A 
ATOM      9  O   UNL     1      -1.349  -1.315   0.000  1.00  0.00    -0.456 OA
ATOM     10  C   UNL     1       0.149  -1.401   0.000  1.00  0.00     0.153 A 
ATOM     11  C   UNL     1       0.973  -0.148   0.000  1.00  0.00     0.076 A 
ATOM     12  C   UNL     1       2.470  -0.235   0.000  1.00  0.00     0.035 A 
ATOM     13  C   UNL     1       3.294   1.019   0.000  1.00  0.00     0.063 A 
ATOM     14  C   UNL     1       4.792   0.932   0.000  1.00  0.00     0.161 A 
ATOM     15  C   UNL     1       5.465  -0.408   0.000  1.00  0.00     0.164 A 
ATOM     16  C   UNL     1       4.641  -1.662   0.000  1.00  0.00     0.097 A 
ATOM     17  C   UNL     1       3.144  -1.575   0.000  1.00  0.00     0.132 A 
ATOM     18  O   UNL     1       2.320  -2.828   0.000  1.00  0.00    -0.485 OA
ATOM     19  C   UNL     1       0.823  -2.742   0.000  1.00  0.00     0.305 C 
ATOM     20  C   UNL     1       0.299   1.192   0.000  1.00  0.00     0.201 A 
ATOM     21  O   UNL     1       1.123   2.446   0.000  1.00  0.00    -0.288 OA
ATOM     22  O   UNL     1      -5.676   1.226   0.000  1.00  0.00    -0.485 OA
ENDROOT
BRANCH   1  23
ATOM     23  C   UNL     1      -7.259  -0.928   0.000  1.00  0.00    -0.040 C 
ATOM     24  C   UNL     1      -7.346  -2.425   0.000  1.00  0.00     0.011 C 
ATOM     25  C   UNL     1      -8.513  -0.104   0.000  1.00  0.00     0.043 C 
ENDBRANCH   1  23
BRANCH  14  26
ATOM     26  O   UNL     1       5.616   2.186   0.000  1.00  0.00    -0.493 OA
ATOM     27  C   UNL     1       7.113   2.099   0.000  1.00  0.00     0.278 C 
ENDBRANCH  14  26
BRANCH  15  28
ATOM     28  O   UNL     1       6.963  -0.495   0.000  1.00  0.00    -0.493 OA
ATOM     29  C   UNL     1       7.636  -1.835   0.000  1.00  0.00     0.278 C 
ENDBRANCH  15  28
TORSDOF 3
