REMARK SMILES CC(C)=CCOc1c2ccoc2cc2oc(=O)ccc12
REMARK SMILES IDX 5 1 4 2 2 3 1 4 3 5 6 6 7 7 8 8 20 9 9 10 12 11 14 12 19 13
REMARK SMILES IDX 10 14 11 15 13 16 15 17 18 18 16 19 17 20
REMARK H PARENT
ROOT
ATOM      1  C   UNL     1      -2.467  -0.721   0.000  1.00  0.00     0.257 C 
ENDROOT
BRANCH   1   2
ATOM      2  C   UNL     1      -3.557  -1.751   0.000  1.00  0.00     0.012 C 
BRANCH   2   3
ATOM      3  C   UNL     1      -4.994  -1.323   0.000  1.00  0.00    -0.077 C 
ATOM      4  C   UNL     1      -6.084  -2.353   0.000  1.00  0.00     0.039 C 
ATOM      5  C   UNL     1      -5.341   0.137   0.000  1.00  0.00     0.039 C 
ENDBRANCH   2   3
ENDBRANCH   1   2
BRANCH   1   6
ATOM      6  O   UNL     1      -1.029  -1.149   0.000  1.00  0.00    -0.488 OA
BRANCH   6   7
ATOM      7  C   UNL     1       0.061  -0.119   0.000  1.00  0.00     0.141 A 
ATOM      8  C   UNL     1      -0.287   1.340   0.000  1.00  0.00     0.063 A 
ATOM      9  C   UNL     1       1.498  -0.548   0.000  1.00  0.00     0.061 A 
ATOM     10  C   UNL     1      -1.604   2.058   0.000  1.00  0.00     0.054 A 
ATOM     11  C   UNL     1       0.803   2.371   0.000  1.00  0.00     0.141 A 
ATOM     12  C   UNL     1       2.588   0.483   0.000  1.00  0.00     0.145 A 
ATOM     13  C   UNL     1       1.846  -2.007   0.000  1.00  0.00     0.023 A 
ATOM     14  C   UNL     1      -1.327   3.533   0.000  1.00  0.00     0.196 A 
ATOM     15  O   UNL     1       0.160   3.726   0.000  1.00  0.00    -0.464 OA
ATOM     16  C   UNL     1       2.241   1.942   0.000  1.00  0.00     0.095 A 
ATOM     17  O   UNL     1       4.026   0.054   0.000  1.00  0.00    -0.422 OA
ATOM     18  C   UNL     1       3.283  -2.436   0.000  1.00  0.00     0.095 A 
ATOM     19  C   UNL     1       4.373  -1.405   0.000  1.00  0.00     0.336 A 
ATOM     20  O   UNL     1       5.811  -1.834   0.000  1.00  0.00    -0.246 OA
ENDBRANCH   6   7
ENDBRANCH   1   6
TORSDOF 4
