REMARK SMILES CC(C)=CCc1c(O)ccc(C(=O)C=Cc2ccccc2)c1O
REMARK SMILES IDX 6 1 7 2 9 3 10 4 11 5 22 6 5 7 4 8 2 9 1 10 3 11 8 12 23 14
REMARK SMILES IDX 12 16 13 17 14 18 15 19 16 20 17 21 21 22 18 23 20 24 19 25
REMARK H PARENT 8 13 23 15
ROOT
ATOM      1  C   UNL     1      -2.474   0.399   0.000  1.00  0.00     0.040 A 
ATOM      2  C   UNL     1      -3.367   1.604   0.000  1.00  0.00     0.122 A 
ATOM      3  C   UNL     1      -2.770   2.980   0.000  1.00  0.00     0.047 A 
ATOM      4  C   UNL     1      -1.280   3.151   0.000  1.00  0.00     0.020 A 
ATOM      5  C   UNL     1      -0.387   1.945   0.000  1.00  0.00     0.064 A 
ATOM      6  C   UNL     1      -0.984   0.570   0.000  1.00  0.00     0.133 A 
ENDROOT
BRANCH   1   7
ATOM      7  C   UNL     1      -3.072  -0.977   0.000  1.00  0.00     0.070 C 
BRANCH   7   8
ATOM      8  C   UNL     1      -4.562  -1.148   0.000  1.00  0.00    -0.023 C 
BRANCH   8   9
ATOM      9  C   UNL     1      -5.160  -2.523   0.000  1.00  0.00    -0.080 C 
ATOM     10  C   UNL     1      -6.650  -2.694   0.000  1.00  0.00     0.039 C 
ATOM     11  C   UNL     1      -4.267  -3.729   0.000  1.00  0.00     0.039 C 
ENDBRANCH   8   9
ENDBRANCH   7   8
ENDBRANCH   1   7
BRANCH   2  12
ATOM     12  O   UNL     1      -4.858   1.434   0.000  1.00  0.00    -0.508 OA
ATOM     13  H   UNL     1       0.000   0.000   0.000  1.00  0.00     0.293 HD
ENDBRANCH   2  12
BRANCH   6  14
ATOM     14  O   UNL     1      -0.091  -0.636   0.000  1.00  0.00    -0.507 OA
ATOM     15  H   UNL     1       0.000   0.000   0.000  1.00  0.00     0.293 HD
ENDBRANCH   6  14
BRANCH   5  16
ATOM     16  C   UNL     1       1.103   2.116   0.000  1.00  0.00     0.189 C 
ATOM     17  O   UNL     1       1.701   3.492   0.000  1.00  0.00    -0.289 OA
BRANCH  16  18
ATOM     18  C   UNL     1       1.996   0.911   0.000  1.00  0.00     0.053 C 
BRANCH  18  19
ATOM     19  C   UNL     1       3.487   1.081   0.000  1.00  0.00     0.012 C 
BRANCH  19  20
ATOM     20  C   UNL     1       4.380  -0.124   0.000  1.00  0.00    -0.026 A 
ATOM     21  C   UNL     1       3.782  -1.500   0.000  1.00  0.00     0.008 A 
ATOM     22  C   UNL     1       5.870   0.047   0.000  1.00  0.00     0.008 A 
ATOM     23  C   UNL     1       4.675  -2.705   0.000  1.00  0.00     0.001 A 
ATOM     24  C   UNL     1       6.763  -1.159   0.000  1.00  0.00     0.001 A 
ATOM     25  C   UNL     1       6.165  -2.535   0.000  1.00  0.00     0.000 A 
ENDBRANCH  19  20
ENDBRANCH  18  19
ENDBRANCH  16  18
ENDBRANCH   5  16
TORSDOF 9
