REMARK SMILES CC(C)=CCCC(C)=CCN(C)C(=N)N(C)CC=C(C)CCC=C(C)C
REMARK SMILES IDX 13 1 11 2 12 3 10 4 9 5 7 6 8 7 6 8 5 9 4 10 2 11 1 12 3 13
REMARK SMILES IDX 14 14 15 16 16 17 17 18 18 19 19 20 20 21 21 22 22 23 23 24
REMARK SMILES IDX 24 25 25 26 26 27
REMARK H PARENT 14 15
ROOT
ATOM      1  C   UNL     1       0.080   1.649   0.000  1.00  0.00     0.193 C 
ENDROOT
BRANCH   1   2
ATOM      2  N   UNL     1       0.825   2.951   0.000  1.00  0.00    -0.342 N 
ATOM      3  C   UNL     1       0.070   4.247   0.000  1.00  0.00     0.147 C 
BRANCH   2   4
ATOM      4  C   UNL     1       2.325   2.957   0.000  1.00  0.00     0.146 C 
BRANCH   4   5
ATOM      5  C   UNL     1       3.080   1.660   0.000  1.00  0.00    -0.007 C 
BRANCH   5   6
ATOM      6  C   UNL     1       4.580   1.666   0.000  1.00  0.00    -0.075 C 
ATOM      7  C   UNL     1       5.325   2.968   0.000  1.00  0.00     0.039 C 
BRANCH   6   8
ATOM      8  C   UNL     1       5.335   0.370   0.000  1.00  0.00     0.034 C 
BRANCH   8   9
ATOM      9  C   UNL     1       4.590  -0.932   0.000  1.00  0.00     0.032 C 
BRANCH   9  10
ATOM     10  C   UNL     1       5.345  -2.228   0.000  1.00  0.00    -0.028 C 
BRANCH  10  11
ATOM     11  C   UNL     1       4.600  -3.530   0.000  1.00  0.00    -0.080 C 
ATOM     12  C   UNL     1       5.355  -4.826   0.000  1.00  0.00     0.039 C 
ATOM     13  C   UNL     1       3.100  -3.536   0.000  1.00  0.00     0.039 C 
ENDBRANCH  10  11
ENDBRANCH   9  10
ENDBRANCH   8   9
ENDBRANCH   6   8
ENDBRANCH   5   6
ENDBRANCH   4   5
ENDBRANCH   2   4
ENDBRANCH   1   2
BRANCH   1  14
ATOM     14  N   UNL     1       0.835   0.353   0.000  1.00  0.00    -0.269 NA
ATOM     15  H   UNL     1       0.000   0.000   0.000  1.00  0.00     0.191 HD
ENDBRANCH   1  14
BRANCH   1  16
ATOM     16  N   UNL     1      -1.420   1.643   0.000  1.00  0.00    -0.342 N 
ATOM     17  C   UNL     1      -2.165   0.342   0.000  1.00  0.00     0.147 C 
BRANCH  16  18
ATOM     18  C   UNL     1      -2.175   2.940   0.000  1.00  0.00     0.146 C 
BRANCH  18  19
ATOM     19  C   UNL     1      -3.675   2.934   0.000  1.00  0.00    -0.007 C 
BRANCH  19  20
ATOM     20  C   UNL     1      -4.420   1.632   0.000  1.00  0.00    -0.075 C 
ATOM     21  C   UNL     1      -5.920   1.627   0.000  1.00  0.00     0.039 C 
BRANCH  20  22
ATOM     22  C   UNL     1      -3.665   0.336   0.000  1.00  0.00     0.034 C 
BRANCH  22  23
ATOM     23  C   UNL     1      -4.410  -0.966   0.000  1.00  0.00     0.032 C 
BRANCH  23  24
ATOM     24  C   UNL     1      -3.655  -2.262   0.000  1.00  0.00    -0.028 C 
BRANCH  24  25
ATOM     25  C   UNL     1      -4.400  -3.564   0.000  1.00  0.00    -0.080 C 
ATOM     26  C   UNL     1      -3.645  -4.860   0.000  1.00  0.00     0.039 C 
ATOM     27  C   UNL     1      -5.900  -3.570   0.000  1.00  0.00     0.039 C 
ENDBRANCH  24  25
ENDBRANCH  23  24
ENDBRANCH  22  23
ENDBRANCH  20  22
ENDBRANCH  19  20
ENDBRANCH  18  19
ENDBRANCH  16  18
ENDBRANCH   1  16
TORSDOF 17
