REMARK SMILES COc1ccc2c(=O)c3ccoc3n(C)c2c1OC
REMARK SMILES IDX 3 1 4 2 5 3 6 4 7 5 8 6 9 7 13 8 12 9 11 10 10 11 14 12
REMARK SMILES IDX 15 13 16 14 17 15 2 16 1 17 18 18 19 19
REMARK H PARENT
ROOT
ATOM      1  C   UNL     1       2.823   0.831   0.000  1.00  0.00     0.162 A 
ATOM      2  C   UNL     1       2.322   2.245   0.000  1.00  0.00     0.051 A 
ATOM      3  C   UNL     1       0.848   2.519   0.000  1.00  0.00     0.018 A 
ATOM      4  C   UNL     1      -0.127   1.379   0.000  1.00  0.00     0.051 A 
ATOM      5  C   UNL     1      -1.602   1.653   0.000  1.00  0.00     0.200 A 
ATOM      6  O   UNL     1      -2.102   3.067   0.000  1.00  0.00    -0.288 OA
ATOM      7  C   UNL     1      -2.576   0.512   0.000  1.00  0.00     0.086 A 
ATOM      8  C   UNL     1      -2.076  -0.902   0.000  1.00  0.00     0.210 A 
ATOM      9  O   UNL     1      -3.267  -1.814   0.000  1.00  0.00    -0.448 OA
ATOM     10  C   UNL     1      -4.502  -0.964   0.000  1.00  0.00     0.198 A 
ATOM     11  C   UNL     1      -4.076   0.474   0.000  1.00  0.00     0.056 A 
ATOM     12  N   UNL     1      -0.601  -1.176   0.000  1.00  0.00    -0.311 N 
ATOM     13  C   UNL     1      -0.101  -2.590   0.000  1.00  0.00     0.153 C 
ATOM     14  C   UNL     1       0.373  -0.035   0.000  1.00  0.00     0.101 A 
ATOM     15  C   UNL     1       1.848  -0.309   0.000  1.00  0.00     0.185 A 
ENDROOT
BRANCH   1  16
ATOM     16  O   UNL     1       4.297   0.557   0.000  1.00  0.00    -0.493 OA
ATOM     17  C   UNL     1       4.798  -0.857   0.000  1.00  0.00     0.278 C 
ENDBRANCH   1  16
BRANCH  15  18
ATOM     18  O   UNL     1       2.348  -1.724   0.000  1.00  0.00    -0.491 OA
ATOM     19  C   UNL     1       1.373  -2.864   0.000  1.00  0.00     0.278 C 
ENDBRANCH  15  18
TORSDOF 2
