REMARK SMILES C[C@@H]1O[C@@H](O[C@H]2[C@H](O[C@H]3[C@H](O[C@H]4CC[C@@]5(C)C(CC[C@]6(C)C5CC=C5C7[C@](C(=O)O[C@@H]8O[C@H](CO)[C@@H](O)[C@H](O)[C@H]8O)(CC[C@@H](C)[C@@]7(C)O)CC[C@]56C)C4(C)C)O[C@H](CO)[C@@H](O)[C@@H]3O)O[C@H](CO)[C@@H](O)[C@@H]2O)[C@H](O)[C@H](O)[C@H]1O
REMARK SMILES IDX 11 1 10 2 9 3 62 4 56 5 60 6 57 7 8 8 7 9 6 10 70 11 64 12
REMARK SMILES IDX 68 13 65 14 5 15 4 16 2 17 3 18 76 19 74 20 72 21 1 22 77 23
REMARK SMILES IDX 75 25 73 27 71 29 69 31 66 33 67 34 63 36 61 38 58 40 59 41
REMARK SMILES IDX 12 43 13 44 53 45 14 46 17 47 15 48 18 49 22 50 19 51 20 52
REMARK SMILES IDX 23 53 51 54 24 55 50 56 25 57 49 58 26 59 27 60 46 61 42 62
REMARK SMILES IDX 44 63 43 64 54 65 55 66 16 67 21 68 52 69 47 70 45 71 28 72
REMARK SMILES IDX 29 73 30 74 31 75 32 76 40 77 33 78 38 79 36 80 41 81 34 83
REMARK SMILES IDX 35 84 39 86 37 88 48 90
REMARK H PARENT 77 24 75 26 73 28 71 30 69 32 67 35 63 37 61 39 59 42 41 82
REMARK H PARENT 35 85 39 87 37 89 48 91
ROOT
ATOM      1  O   UNL     1      -3.710  -0.998   0.000  1.00  0.00    -0.346 OA
ENDROOT
BRANCH   1   2
ATOM      2  C   UNL     1      -4.576  -2.223   0.000  1.00  0.00     0.282 C 
ATOM      3  C   UNL     1      -6.069  -2.086   0.000  1.00  0.00     0.209 C 
ATOM      4  C   UNL     1      -6.935  -3.311   0.000  1.00  0.00     0.180 C 
ATOM      5  O   UNL     1      -3.947  -3.585   0.000  1.00  0.00    -0.341 OA
ATOM      6  C   UNL     1      -6.307  -4.673   0.000  1.00  0.00     0.177 C 
ATOM      7  C   UNL     1      -4.813  -4.810   0.000  1.00  0.00     0.178 C 
BRANCH   3   8
ATOM      8  O   UNL     1      -6.697  -0.724   0.000  1.00  0.00    -0.338 OA
BRANCH   8   9
ATOM      9  C   UNL     1      -8.191  -0.587   0.000  1.00  0.00     0.283 C 
ATOM     10  C   UNL     1      -8.819   0.776   0.000  1.00  0.00     0.209 C 
ATOM     11  C   UNL     1     -10.313   0.913   0.000  1.00  0.00     0.180 C 
ATOM     12  O   UNL     1      -9.057  -1.812   0.000  1.00  0.00    -0.341 OA
ATOM     13  C   UNL     1     -11.179  -0.312   0.000  1.00  0.00     0.177 C 
ATOM     14  C   UNL     1     -10.550  -1.675   0.000  1.00  0.00     0.178 C 
BRANCH  10  15
ATOM     15  O   UNL     1      -7.954   2.001   0.000  1.00  0.00    -0.338 OA
BRANCH  15  16
ATOM     16  C   UNL     1      -8.582   3.363   0.000  1.00  0.00     0.282 C 
ATOM     17  C   UNL     1     -10.704   4.862   0.000  1.00  0.00     0.150 C 
ATOM     18  O   UNL     1     -10.075   3.500   0.000  1.00  0.00    -0.344 OA
ATOM     19  C   UNL     1      -9.838   6.087   0.000  1.00  0.00     0.174 C 
ATOM     20  C   UNL     1      -8.344   5.950   0.000  1.00  0.00     0.179 C 
ATOM     21  C   UNL     1      -7.716   4.588   0.000  1.00  0.00     0.202 C 
ATOM     22  C   UNL     1     -12.197   4.999   0.000  1.00  0.00     0.041 C 
BRANCH  19  23
ATOM     23  O   UNL     1     -10.466   7.449   0.000  1.00  0.00    -0.388 OA
ATOM     24  H   UNL     1       0.000   0.000   0.000  1.00  0.00     0.211 HD
ENDBRANCH  19  23
BRANCH  20  25
ATOM     25  O   UNL     1      -7.479   7.175   0.000  1.00  0.00    -0.387 OA
ATOM     26  H   UNL     1       0.000   0.000   0.000  1.00  0.00     0.211 HD
ENDBRANCH  20  25
BRANCH  21  27
ATOM     27  O   UNL     1      -6.223   4.451   0.000  1.00  0.00    -0.385 OA
ATOM     28  H   UNL     1       0.000   0.000   0.000  1.00  0.00     0.211 HD
ENDBRANCH  21  27
ENDBRANCH  15  16
ENDBRANCH  10  15
BRANCH  11  29
ATOM     29  O   UNL     1     -10.941   2.275   0.000  1.00  0.00    -0.387 OA
ATOM     30  H   UNL     1       0.000   0.000   0.000  1.00  0.00     0.211 HD
ENDBRANCH  11  29
BRANCH  13  31
ATOM     31  O   UNL     1     -12.672  -0.175   0.000  1.00  0.00    -0.387 OA
ATOM     32  H   UNL     1       0.000   0.000   0.000  1.00  0.00     0.211 HD
ENDBRANCH  13  31
BRANCH  14  33
ATOM     33  C   UNL     1     -11.416  -2.900   0.000  1.00  0.00     0.191 C 
BRANCH  33  34
ATOM     34  O   UNL     1     -12.910  -2.762   0.000  1.00  0.00    -0.394 OA
ATOM     35  H   UNL     1       0.000   0.000   0.000  1.00  0.00     0.210 HD
ENDBRANCH  33  34
ENDBRANCH  14  33
ENDBRANCH   8   9
ENDBRANCH   3   8
BRANCH   4  36
ATOM     36  O   UNL     1      -8.429  -3.174   0.000  1.00  0.00    -0.387 OA
ATOM     37  H   UNL     1       0.000   0.000   0.000  1.00  0.00     0.211 HD
ENDBRANCH   4  36
BRANCH   6  38
ATOM     38  O   UNL     1      -7.172  -5.898   0.000  1.00  0.00    -0.387 OA
ATOM     39  H   UNL     1       0.000   0.000   0.000  1.00  0.00     0.211 HD
ENDBRANCH   6  38
BRANCH   7  40
ATOM     40  C   UNL     1      -4.185  -6.172   0.000  1.00  0.00     0.191 C 
BRANCH  40  41
ATOM     41  O   UNL     1      -2.691  -6.309   0.000  1.00  0.00    -0.394 OA
ATOM     42  H   UNL     1       0.000   0.000   0.000  1.00  0.00     0.210 HD
ENDBRANCH  40  41
ENDBRANCH   7  40
ENDBRANCH   1   2
BRANCH   1  43
ATOM     43  C   UNL     1      -2.216  -1.135   0.000  1.00  0.00     0.127 C 
ATOM     44  C   UNL     1      -1.588  -2.497   0.000  1.00  0.00     0.033 C 
ATOM     45  C   UNL     1      -1.351   0.090   0.000  1.00  0.00    -0.006 C 
ATOM     46  C   UNL     1      -0.094  -2.634   0.000  1.00  0.00     0.010 C 
ATOM     47  C   UNL     1       0.143  -0.047   0.000  1.00  0.00     0.003 C 
ATOM     48  C   UNL     1       0.771  -1.409   0.000  1.00  0.00    -0.025 C 
ATOM     49  C   UNL     1       1.009   1.178   0.000  1.00  0.00     0.005 C 
ATOM     50  C   UNL     1       2.265  -1.546   0.000  1.00  0.00     0.006 C 
ATOM     51  C   UNL     1       2.502   1.041   0.000  1.00  0.00     0.008 C 
ATOM     52  C   UNL     1       3.131  -0.321   0.000  1.00  0.00    -0.020 C 
ATOM     53  C   UNL     1       2.893  -2.908   0.000  1.00  0.00     0.032 C 
ATOM     54  C   UNL     1       4.624  -0.458   0.000  1.00  0.00    -0.006 C 
ATOM     55  C   UNL     1       4.387  -3.046   0.000  1.00  0.00    -0.026 C 
ATOM     56  C   UNL     1       5.490   0.767   0.000  1.00  0.00     0.013 C 
ATOM     57  C   UNL     1       5.252  -1.821   0.000  1.00  0.00    -0.061 C 
ATOM     58  C   UNL     1       6.984   0.630   0.000  1.00  0.00     0.020 C 
ATOM     59  C   UNL     1       6.746  -1.958   0.000  1.00  0.00     0.064 C 
ATOM     60  C   UNL     1       7.612  -0.733   0.000  1.00  0.00     0.077 C 
ATOM     61  C   UNL     1       7.374  -3.320   0.000  1.00  0.00     0.072 C 
ATOM     62  C   UNL     1       9.105  -0.870   0.000  1.00  0.00     0.020 C 
ATOM     63  C   UNL     1       8.868  -3.457   0.000  1.00  0.00     0.018 C 
ATOM     64  C   UNL     1       9.733  -2.232   0.000  1.00  0.00     0.007 C 
ATOM     65  C   UNL     1      -2.707   0.730   0.000  1.00  0.00     0.014 C 
ATOM     66  C   UNL     1      -0.956   1.537   0.000  1.00  0.00     0.014 C 
ATOM     67  C   UNL     1       1.399  -2.771   0.000  1.00  0.00     0.012 C 
ATOM     68  C   UNL     1       3.996   0.904   0.000  1.00  0.00     0.012 C 
ATOM     69  C   UNL     1       3.759  -1.683   0.000  1.00  0.00     0.017 C 
ATOM     70  C   UNL     1       5.924  -3.702   0.000  1.00  0.00     0.043 C 
ATOM     71  C   UNL     1       9.496  -4.819   0.000  1.00  0.00     0.011 C 
BRANCH  60  72
ATOM     72  C   UNL     1       8.477   0.492   0.000  1.00  0.00     0.315 C 
ATOM     73  O   UNL     1       7.849   1.855   0.000  1.00  0.00    -0.252 OA
BRANCH  72  74
ATOM     74  O   UNL     1       9.971   0.355   0.000  1.00  0.00    -0.432 OA
BRANCH  74  75
ATOM     75  C   UNL     1      10.836   1.581   0.000  1.00  0.00     0.342 C 
ATOM     76  O   UNL     1      12.330   1.443   0.000  1.00  0.00    -0.332 OA
ATOM     77  C   UNL     1      10.208   2.943   0.000  1.00  0.00     0.214 C 
ATOM     78  C   UNL     1      13.196   2.668   0.000  1.00  0.00     0.179 C 
ATOM     79  C   UNL     1      11.074   4.168   0.000  1.00  0.00     0.180 C 
ATOM     80  C   UNL     1      12.568   4.031   0.000  1.00  0.00     0.177 C 
BRANCH  77  81
ATOM     81  O   UNL     1       8.715   3.080   0.000  1.00  0.00    -0.384 OA
ATOM     82  H   UNL     1       0.000   0.000   0.000  1.00  0.00     0.211 HD
ENDBRANCH  77  81
BRANCH  78  83
ATOM     83  C   UNL     1      14.690   2.531   0.000  1.00  0.00     0.191 C 
BRANCH  83  84
ATOM     84  O   UNL     1      15.318   1.169   0.000  1.00  0.00    -0.394 OA
ATOM     85  H   UNL     1       0.000   0.000   0.000  1.00  0.00     0.210 HD
ENDBRANCH  83  84
ENDBRANCH  78  83
BRANCH  79  86
ATOM     86  O   UNL     1      10.446   5.530   0.000  1.00  0.00    -0.387 OA
ATOM     87  H   UNL     1       0.000   0.000   0.000  1.00  0.00     0.211 HD
ENDBRANCH  79  86
BRANCH  80  88
ATOM     88  O   UNL     1      13.433   5.256   0.000  1.00  0.00    -0.387 OA
ATOM     89  H   UNL     1       0.000   0.000   0.000  1.00  0.00     0.211 HD
ENDBRANCH  80  88
ENDBRANCH  74  75
ENDBRANCH  72  74
ENDBRANCH  60  72
BRANCH  61  90
ATOM     90  O   UNL     1       7.498  -4.815   0.000  1.00  0.00    -0.389 OA
ATOM     91  H   UNL     1       0.000   0.000   0.000  1.00  0.00     0.211 HD
ENDBRANCH  61  90
ENDBRANCH   1  43
TORSDOF 26
