REMARK SMILES C[C@@H]1Cc2c(C=O)ccc(O)c2C(=O)O1
REMARK SMILES IDX 1 1 2 2 3 3 4 4 5 5 8 6 9 7 10 8 12 9 13 10 14 11 15 12 6 13
REMARK SMILES IDX 7 14 11 15
REMARK H PARENT 11 16
ROOT
ATOM      1  C   UNL     1       2.392  -3.360   0.000  1.00  0.00     0.053 C 
ATOM      2  C   UNL     1       1.769  -1.996   0.000  1.00  0.00     0.178 C 
ATOM      3  C   UNL     1       0.275  -1.853   0.000  1.00  0.00     0.082 C 
ATOM      4  C   UNL     1      -0.348  -0.489   0.000  1.00  0.00    -0.016 A 
ATOM      5  C   UNL     1      -1.841  -0.346   0.000  1.00  0.00     0.019 A 
ATOM      6  C   UNL     1      -2.465   1.018   0.000  1.00  0.00     0.015 A 
ATOM      7  C   UNL     1      -1.595   2.240   0.000  1.00  0.00     0.048 A 
ATOM      8  C   UNL     1      -0.101   2.098   0.000  1.00  0.00     0.130 A 
ATOM      9  C   UNL     1       0.522   0.733   0.000  1.00  0.00     0.105 A 
ATOM     10  C   UNL     1       2.015   0.591   0.000  1.00  0.00     0.342 C 
ATOM     11  O   UNL     1       2.885   1.813   0.000  1.00  0.00    -0.246 OA
ATOM     12  O   UNL     1       2.639  -0.774   0.000  1.00  0.00    -0.459 OA
ENDROOT
BRANCH   5  13
ATOM     13  C   UNL     1      -2.711  -1.568   0.000  1.00  0.00     0.260 C 
ATOM     14  O   UNL     1      -4.204  -1.426   0.000  1.00  0.00    -0.298 OA
ENDBRANCH   5  13
BRANCH   8  15
ATOM     15  O   UNL     1       0.769   3.320   0.000  1.00  0.00    -0.507 OA
ATOM     16  H   UNL     1       0.000   0.000   0.000  1.00  0.00     0.293 HD
ENDBRANCH   8  15
TORSDOF 2
