REMARK SMILES COc1c(O)cc(O)c2c(=O)c3cccc(O)c3[nH]c12
REMARK SMILES IDX 3 1 4 2 6 3 7 4 9 5 20 6 19 7 18 8 16 9 15 10 14 11 13 12
REMARK SMILES IDX 12 13 10 14 11 15 2 17 1 18 5 19 8 21 17 23
REMARK H PARENT 19 16 5 20 8 22 17 24
ROOT
ATOM      1  C   UNL     1      -2.165  -0.948   0.000  1.00  0.00     0.185 A 
ATOM      2  C   UNL     1      -3.348  -0.025   0.000  1.00  0.00     0.163 A 
ATOM      3  C   UNL     1      -3.141   1.460   0.000  1.00  0.00     0.097 A 
ATOM      4  C   UNL     1      -1.751   2.024   0.000  1.00  0.00     0.132 A 
ATOM      5  C   UNL     1      -0.568   1.101   0.000  1.00  0.00     0.092 A 
ATOM      6  C   UNL     1      -0.775  -0.384   0.000  1.00  0.00     0.100 A 
ATOM      7  N   UNL     1       0.408  -1.306   0.000  1.00  0.00    -0.348 N 
ATOM      8  C   UNL     1       1.798  -0.743   0.000  1.00  0.00     0.092 A 
ATOM      9  C   UNL     1       2.981  -1.665   0.000  1.00  0.00     0.139 A 
ATOM     10  C   UNL     1       4.371  -1.102   0.000  1.00  0.00     0.048 A 
ATOM     11  C   UNL     1       4.579   0.384   0.000  1.00  0.00     0.005 A 
ATOM     12  C   UNL     1       3.396   1.306   0.000  1.00  0.00     0.014 A 
ATOM     13  C   UNL     1       2.005   0.743   0.000  1.00  0.00     0.050 A 
ATOM     14  C   UNL     1       0.822   1.665   0.000  1.00  0.00     0.201 A 
ATOM     15  O   UNL     1       1.030   3.151   0.000  1.00  0.00    -0.288 OA
ATOM     16  H   UNL     1       0.000   0.000   0.000  1.00  0.00     0.167 HD
ENDROOT
BRANCH   1  17
ATOM     17  O   UNL     1      -2.372  -2.433   0.000  1.00  0.00    -0.491 OA
ATOM     18  C   UNL     1      -3.763  -2.997   0.000  1.00  0.00     0.278 C 
ENDBRANCH   1  17
BRANCH   2  19
ATOM     19  O   UNL     1      -4.738  -0.589   0.000  1.00  0.00    -0.504 OA
ATOM     20  H   UNL     1       0.000   0.000   0.000  1.00  0.00     0.293 HD
ENDBRANCH   2  19
BRANCH   4  21
ATOM     21  O   UNL     1      -1.544   3.509   0.000  1.00  0.00    -0.507 OA
ATOM     22  H   UNL     1       0.000   0.000   0.000  1.00  0.00     0.293 HD
ENDBRANCH   4  21
BRANCH   9  23
ATOM     23  O   UNL     1       2.774  -3.151   0.000  1.00  0.00    -0.506 OA
ATOM     24  H   UNL     1       0.000   0.000   0.000  1.00  0.00     0.293 HD
ENDBRANCH   9  23
TORSDOF 4
