REMARK SMILES CCCCCCCCCc1cc(=O)c2ccccc2n1C
REMARK SMILES IDX 6 1 5 2 4 3 3 4 2 5 1 6 7 7 8 8 9 9 10 10 11 11 20 12 12 13
REMARK SMILES IDX 19 14 14 15 18 16 15 17 17 18 16 19 21 20 13 21
REMARK H PARENT
ROOT
ATOM      1  C   UNL     1      -3.551  -0.070   0.000  1.00  0.00     0.000 C 
ENDROOT
BRANCH   1   2
ATOM      2  C   UNL     1      -4.975  -0.542   0.000  1.00  0.00     0.000 C 
BRANCH   2   3
ATOM      3  C   UNL     1      -6.096   0.454   0.000  1.00  0.00    -0.000 C 
BRANCH   3   4
ATOM      4  C   UNL     1      -7.520  -0.018   0.000  1.00  0.00    -0.000 C 
BRANCH   4   5
ATOM      5  C   UNL     1      -8.641   0.979   0.000  1.00  0.00    -0.003 C 
ATOM      6  C   UNL     1     -10.064   0.506   0.000  1.00  0.00     0.004 C 
ENDBRANCH   4   5
ENDBRANCH   3   4
ENDBRANCH   2   3
ENDBRANCH   1   2
BRANCH   1   7
ATOM      7  C   UNL     1      -2.430  -1.067   0.000  1.00  0.00     0.000 C 
BRANCH   7   8
ATOM      8  C   UNL     1      -1.007  -0.595   0.000  1.00  0.00     0.006 C 
BRANCH   8   9
ATOM      9  C   UNL     1       0.114  -1.591   0.000  1.00  0.00     0.054 C 
BRANCH   9  10
ATOM     10  C   UNL     1       1.538  -1.119   0.000  1.00  0.00     0.022 A 
ATOM     11  C   UNL     1       2.659  -2.116   0.000  1.00  0.00     0.074 A 
ATOM     12  N   UNL     1       1.841   0.350   0.000  1.00  0.00    -0.347 N 
ATOM     13  C   UNL     1       4.082  -1.644   0.000  1.00  0.00     0.189 A 
ATOM     14  C   UNL     1       3.264   0.822   0.000  1.00  0.00     0.052 A 
ATOM     15  C   UNL     1       4.385  -0.175   0.000  1.00  0.00     0.046 A 
ATOM     16  C   UNL     1       3.567   2.291   0.000  1.00  0.00     0.027 A 
ATOM     17  C   UNL     1       5.809   0.298   0.000  1.00  0.00     0.014 A 
ATOM     18  C   UNL     1       4.991   2.764   0.000  1.00  0.00     0.002 A 
ATOM     19  C   UNL     1       6.112   1.767   0.000  1.00  0.00     0.001 A 
ATOM     20  C   UNL     1       0.720   1.347   0.000  1.00  0.00     0.150 C 
ATOM     21  O   UNL     1       5.203  -2.640   0.000  1.00  0.00    -0.289 OA
ENDBRANCH   9  10
ENDBRANCH   8   9
ENDBRANCH   7   8
ENDBRANCH   1   7
TORSDOF 8
