REMARK SMILES COc1ccc2c3ccnc4ccc(=O)n(c2c1)c43
REMARK SMILES IDX 3 1 4 2 5 3 6 4 7 5 8 6 9 7 10 8 11 9 19 10 16 11 14 12
REMARK SMILES IDX 15 13 13 14 12 15 17 16 18 17 2 18 1 19
REMARK H PARENT
ROOT
ATOM      1  C   UNL     1      -3.380  -0.145   0.000  1.00  0.00     0.120 A 
ATOM      2  C   UNL     1      -3.228   1.347   0.000  1.00  0.00     0.047 A 
ATOM      3  C   UNL     1      -1.860   1.962   0.000  1.00  0.00     0.015 A 
ATOM      4  C   UNL     1      -0.644   1.084   0.000  1.00  0.00     0.008 A 
ATOM      5  C   UNL     1       0.823   1.401   0.000  1.00  0.00     0.012 A 
ATOM      6  C   UNL     1       1.568   2.703   0.000  1.00  0.00     0.031 A 
ATOM      7  C   UNL     1       3.068   2.708   0.000  1.00  0.00     0.112 A 
ATOM      8  N   UNL     1       3.822   1.411   0.000  1.00  0.00    -0.255 NA
ATOM      9  C   UNL     1       3.077   0.110   0.000  1.00  0.00     0.088 A 
ATOM     10  C   UNL     1       1.577   0.105   0.000  1.00  0.00     0.083 A 
ATOM     11  N   UNL     1       0.577  -1.014   0.000  1.00  0.00    -0.274 N 
ATOM     12  C   UNL     1       1.322  -2.323   0.000  1.00  0.00     0.255 A 
ATOM     13  O   UNL     1       0.444  -3.540   0.000  1.00  0.00    -0.269 OA
ATOM     14  C   UNL     1       2.814  -2.475   0.000  1.00  0.00     0.074 A 
ATOM     15  C   UNL     1       3.692  -1.258   0.000  1.00  0.00     0.036 A 
ATOM     16  C   UNL     1      -0.795  -0.408   0.000  1.00  0.00     0.061 A 
ATOM     17  C   UNL     1      -2.163  -1.023   0.000  1.00  0.00     0.073 A 
ENDROOT
BRANCH   1  18
ATOM     18  O   UNL     1      -4.748  -0.760   0.000  1.00  0.00    -0.497 OA
ATOM     19  C   UNL     1      -5.965   0.117   0.000  1.00  0.00     0.278 C 
ENDBRANCH   1  18
TORSDOF 1
