REMARK SMILES C=C(C)[C@H]1C/C=C(\C)CC/C=C(/C)CC/C=C(\C)CC1
REMARK SMILES IDX 15 1 16 2 17 3 18 4 19 5 20 6 4 7 2 8 1 9 3 10 5 11 6 12
REMARK SMILES IDX 14 14 12 15 13 16 11 17 10 18 9 19 7 20 8 21
REMARK H PARENT
REMARK Flexibility Score:   48.900
ROOT
ATOM      1  C   UNL     1      -2.675   2.635   0.000  1.00  0.00     0.032 C 
ENDROOT
BRANCH   1   2
ATOM      2  C   UNL     1      -1.324   3.286   0.000  1.00  0.00    -0.028 C 
BRANCH   2   3
ATOM      3  C   UNL     1       0.028   2.635   0.000  1.00  0.00    -0.077 C 
ATOM      4  C   UNL     1      -0.306   1.173   0.000  1.00  0.00     0.039 C 
BRANCH   3   5
ATOM      5  C   UNL     1       1.528   2.635   0.000  1.00  0.00     0.031 C 
BRANCH   5   6
ATOM      6  C   UNL     1       2.463   1.462   0.000  1.00  0.00     0.013 C 
BRANCH   6   7
ATOM      7  C   UNL     1       2.796   0.000   0.000  1.00  0.00     0.018 C 
BRANCH   7   8
ATOM      8  C   UNL     1       4.296   0.000   0.000  1.00  0.00    -0.077 C 
ATOM      9  C   UNL     1       5.046   1.299   0.000  1.00  0.00     0.008 C 
ATOM     10  C   UNL     1       5.046  -1.299   0.000  1.00  0.00     0.039 C 
ENDBRANCH   7   8
BRANCH   7  11
ATOM     11  C   UNL     1       2.463  -1.462   0.000  1.00  0.00     0.035 C 
BRANCH  11  12
ATOM     12  C   UNL     1       1.528  -2.635   0.000  1.00  0.00    -0.027 CG0
ATOM     13  G   UNL     1       0.028  -2.635   0.000  1.00  0.00     0.000 G0
ENDBRANCH  11  12
ENDBRANCH   7  11
ENDBRANCH   6   7
ENDBRANCH   5   6
ENDBRANCH   3   5
ENDBRANCH   2   3
ENDBRANCH   1   2
BRANCH   1  14
ATOM     14  C   UNL     1      -3.611   1.462   0.000  1.00  0.00     0.034 C 
BRANCH  14  15
ATOM     15  C   UNL     1      -3.944   0.000   0.000  1.00  0.00    -0.077 C 
ATOM     16  C   UNL     1      -5.444   0.000   0.000  1.00  0.00     0.039 C 
BRANCH  15  17
ATOM     17  C   UNL     1      -3.611  -1.462   0.000  1.00  0.00    -0.028 C 
BRANCH  17  18
ATOM     18  C   UNL     1      -2.675  -2.635   0.000  1.00  0.00     0.032 C 
BRANCH  18  19
ATOM     19  C   UNL     1      -1.324  -3.286   0.000  1.00  0.00     0.034 C 
BRANCH  19  20
ATOM     20  C   UNL     1       0.028  -2.635   0.000  1.00  0.00    -0.077 CG0
ATOM     21  C   UNL     1      -0.306  -1.173   0.000  1.00  0.00     0.039 C 
ATOM     22  G   UNL     1       1.528  -2.635   0.000  1.00  0.00     0.000 G0
ENDBRANCH  19  20
ENDBRANCH  18  19
ENDBRANCH  17  18
ENDBRANCH  15  17
ENDBRANCH  14  15
ENDBRANCH   1  14
TORSDOF 1
