REMARK SMILES COC(=O)c1ccc(O)c(C(=O)C=C(C)C)c1
REMARK SMILES IDX 5 1 6 2 7 3 8 4 10 5 17 6 3 7 4 8 2 9 1 10 11 11 12 12 13 13
REMARK SMILES IDX 14 14 15 15 16 16 9 17
REMARK H PARENT 9 18
ROOT
ATOM      1  C   UNL     1      -1.993   0.087   0.000  1.00  0.00     0.061 A 
ATOM      2  C   UNL     1      -2.361   1.541   0.000  1.00  0.00     0.019 A 
ATOM      3  C   UNL     1      -1.286   2.587   0.000  1.00  0.00     0.048 A 
ATOM      4  C   UNL     1       0.158   2.179   0.000  1.00  0.00     0.126 A 
ATOM      5  C   UNL     1       0.526   0.725   0.000  1.00  0.00     0.064 A 
ATOM      6  C   UNL     1      -0.549  -0.321   0.000  1.00  0.00     0.031 A 
ENDROOT
BRANCH   1   7
ATOM      7  C   UNL     1      -3.068  -0.959   0.000  1.00  0.00     0.337 C 
ATOM      8  O   UNL     1      -2.700  -2.413   0.000  1.00  0.00    -0.246 OA
BRANCH   7   9
ATOM      9  O   UNL     1      -4.511  -0.551   0.000  1.00  0.00    -0.465 OA
ATOM     10  C   UNL     1      -5.586  -1.597   0.000  1.00  0.00     0.282 C 
ENDBRANCH   7   9
ENDBRANCH   1   7
BRANCH   5  11
ATOM     11  C   UNL     1       1.969   0.317   0.000  1.00  0.00     0.189 C 
ATOM     12  O   UNL     1       3.044   1.363   0.000  1.00  0.00    -0.289 OA
BRANCH  11  13
ATOM     13  C   UNL     1       2.338  -1.137   0.000  1.00  0.00     0.051 C 
BRANCH  13  14
ATOM     14  C   UNL     1       3.781  -1.546   0.000  1.00  0.00    -0.073 C 
ATOM     15  C   UNL     1       4.149  -3.000   0.000  1.00  0.00     0.039 C 
ATOM     16  C   UNL     1       4.856  -0.499   0.000  1.00  0.00     0.039 C 
ENDBRANCH  13  14
ENDBRANCH  11  13
ENDBRANCH   5  11
BRANCH   4  17
ATOM     17  O   UNL     1       1.233   3.225   0.000  1.00  0.00    -0.507 OA
ATOM     18  H   UNL     1       0.000   0.000   0.000  1.00  0.00     0.293 HD
ENDBRANCH   4  17
TORSDOF 6
