REMARK SMILES C=C(C)[C@H]1CC[C@]2(C)CC[C@]3(C)[C@H](CC[C@@H]4[C@@](C)(CCC(=O)OC)[C@H](C(=C)C)CC[C@]43C)[C@@H]12
REMARK SMILES IDX 19 1 17 2 4 3 5 4 33 5 6 6 13 7 7 8 11 9 14 10 9 11 10 12
REMARK SMILES IDX 31 13 15 14 30 15 16 16 29 17 25 18 8 19 12 20 32 21 18 22
REMARK SMILES IDX 2 23 1 24 3 25 26 26 27 27 28 28 20 29 21 30 22 31 23 32
REMARK SMILES IDX 24 33
REMARK H PARENT
ROOT
ATOM      1  C   UNL     1      -2.495  -0.680   0.000  1.00  0.00     0.019 C 
ENDROOT
BRANCH   1   2
ATOM      2  C   UNL     1      -2.486   0.820   0.000  1.00  0.00    -0.022 C 
ATOM      3  C   UNL     1       4.204  -1.535   0.000  1.00  0.00     0.018 C 
ATOM      4  C   UNL     1       5.661  -1.181   0.000  1.00  0.00     0.009 C 
ATOM      5  C   UNL     1       3.416  -0.258   0.000  1.00  0.00     0.006 C 
ATOM      6  C   UNL     1       5.775   0.315   0.000  1.00  0.00     0.008 C 
ATOM      7  C   UNL     1       1.941   0.011   0.000  1.00  0.00    -0.000 C 
ATOM      8  C   UNL     1       4.388   0.885   0.000  1.00  0.00    -0.029 C 
ATOM      9  C   UNL     1       1.436   1.424   0.000  1.00  0.00    -0.024 C 
ATOM     10  C   UNL     1       0.970  -1.132   0.000  1.00  0.00     0.005 C 
ATOM     11  C   UNL     1       3.883   2.298   0.000  1.00  0.00     0.007 C 
ATOM     12  C   UNL     1       2.408   2.567   0.000  1.00  0.00     0.008 C 
ATOM     13  C   UNL     1      -0.039   1.693   0.000  1.00  0.00    -0.024 C 
ATOM     14  C   UNL     1      -0.506  -0.862   0.000  1.00  0.00     0.005 C 
ATOM     15  C   UNL     1      -0.544   3.106   0.000  1.00  0.00     0.008 C 
ATOM     16  C   UNL     1      -1.010   0.550   0.000  1.00  0.00     0.002 C 
ATOM     17  C   UNL     1      -2.019   3.376   0.000  1.00  0.00     0.009 C 
ATOM     18  C   UNL     1      -2.990   2.232   0.000  1.00  0.00     0.020 C 
ATOM     19  C   UNL     1       5.473   1.920   0.000  1.00  0.00     0.011 C 
ATOM     20  C   UNL     1       0.932   2.837   0.000  1.00  0.00     0.012 C 
ATOM     21  C   UNL     1       0.465   0.281   0.000  1.00  0.00     0.012 C 
ATOM     22  C   UNL     1      -3.965   0.568   0.000  1.00  0.00     0.012 C 
BRANCH   3  23
ATOM     23  C   UNL     1       3.633  -2.922   0.000  1.00  0.00    -0.077 C 
ATOM     24  C   UNL     1       2.147  -3.122   0.000  1.00  0.00     0.008 C 
ATOM     25  C   UNL     1       4.550  -4.110   0.000  1.00  0.00     0.039 C 
ENDBRANCH   3  23
BRANCH  18  26
ATOM     26  C   UNL     1      -4.466   2.502   0.000  1.00  0.00    -0.077 C 
ATOM     27  C   UNL     1      -5.437   1.359   0.000  1.00  0.00     0.008 C 
ATOM     28  C   UNL     1      -4.971   3.914   0.000  1.00  0.00     0.039 C 
ENDBRANCH  18  26
ENDBRANCH   1   2
BRANCH   1  29
ATOM     29  C   UNL     1      -3.799  -1.422   0.000  1.00  0.00     0.123 C 
BRANCH  29  30
ATOM     30  C   UNL     1      -3.808  -2.922   0.000  1.00  0.00     0.305 C 
ATOM     31  O   UNL     1      -2.513  -3.680   0.000  1.00  0.00    -0.252 OA
BRANCH  30  32
ATOM     32  O   UNL     1      -5.111  -3.664   0.000  1.00  0.00    -0.469 OA
ATOM     33  C   UNL     1      -5.120  -5.164   0.000  1.00  0.00     0.282 C 
ENDBRANCH  30  32
ENDBRANCH  29  30
ENDBRANCH   1  29
TORSDOF 6
