REMARK SMILES COC(=O)[C@@]1(C)C(=O)C=C[C@@]2(C)C1=C(O)C(=O)[C@@]1(C)C3=CC[C@@H](C4=CC(O)OC4=O)[C@]3(C)[C@@H](OC(=O)C(C)C)[C@H](OC(C)=O)[C@@H]12
REMARK SMILES IDX 5 1 6 2 7 3 8 4 9 5 10 6 11 7 12 8 13 9 14 10 16 11 17 12
REMARK SMILES IDX 18 13 19 14 20 15 21 16 22 17 23 18 31 19 32 20 33 21 40 22
REMARK SMILES IDX 45 23 3 24 4 25 2 26 1 27 15 28 41 30 42 31 43 32 44 33
REMARK SMILES IDX 34 34 35 35 36 36 37 37 38 38 39 39 24 40 25 41 29 42 26 43
REMARK SMILES IDX 28 44 30 45 27 46
REMARK H PARENT 15 29 27 47
ROOT
ATOM      1  C   UNL     1       4.942   0.167   0.000  1.00  0.00     0.153 C 
ATOM      2  C   UNL     1       5.309  -1.287   0.000  1.00  0.00     0.038 C 
ATOM      3  C   UNL     1       5.093   1.659   0.000  1.00  0.00     0.176 C 
ATOM      4  O   UNL     1       6.377   2.436   0.000  1.00  0.00    -0.293 OA
ATOM      5  C   UNL     1       3.877   2.537   0.000  1.00  0.00     0.045 C 
ATOM      6  C   UNL     1       2.509   1.922   0.000  1.00  0.00    -0.012 C 
ATOM      7  C   UNL     1       2.357   0.430   0.000  1.00  0.00     0.020 C 
ATOM      8  C   UNL     1       1.140   1.307   0.000  1.00  0.00     0.021 C 
ATOM      9  C   UNL     1       3.573  -0.448   0.000  1.00  0.00     0.010 C 
ATOM     10  C   UNL     1       3.422  -1.940   0.000  1.00  0.00     0.161 C 
ATOM     11  C   UNL     1       2.053  -2.555   0.000  1.00  0.00     0.207 C 
ATOM     12  O   UNL     1       1.902  -4.047   0.000  1.00  0.00    -0.290 OA
ATOM     13  C   UNL     1       0.837  -1.677   0.000  1.00  0.00     0.063 C 
ATOM     14  C   UNL     1       0.685  -3.170   0.000  1.00  0.00     0.025 C 
ATOM     15  C   UNL     1      -0.531  -2.292   0.000  1.00  0.00    -0.050 C 
ATOM     16  C   UNL     1      -0.990  -3.720   0.000  1.00  0.00    -0.025 C 
ATOM     17  C   UNL     1      -2.490  -3.725   0.000  1.00  0.00     0.037 C 
ATOM     18  C   UNL     1      -2.958  -2.300   0.000  1.00  0.00     0.044 C 
ATOM     19  C   UNL     1      -1.748  -1.414   0.000  1.00  0.00     0.038 C 
ATOM     20  C   UNL     1      -3.049  -0.669   0.000  1.00  0.00     0.021 C 
ATOM     21  C   UNL     1      -1.596   0.078   0.000  1.00  0.00     0.228 C 
ATOM     22  C   UNL     1      -0.228   0.693   0.000  1.00  0.00     0.223 C 
ATOM     23  C   UNL     1       0.989  -0.185   0.000  1.00  0.00     0.066 C 
ENDROOT
BRANCH   1  24
ATOM     24  C   UNL     1       6.438   0.277   0.000  1.00  0.00     0.323 C 
ATOM     25  O   UNL     1       7.250   1.537   0.000  1.00  0.00    -0.251 OA
BRANCH  24  26
ATOM     26  O   UNL     1       7.281  -0.964   0.000  1.00  0.00    -0.468 OA
ATOM     27  C   UNL     1       8.777  -0.854   0.000  1.00  0.00     0.282 C 
ENDBRANCH  24  26
ENDBRANCH   1  24
BRANCH  10  28
ATOM     28  O   UNL     1       4.638  -2.818   0.000  1.00  0.00    -0.504 OA
ATOM     29  H   UNL     1       0.000   0.000   0.000  1.00  0.00     0.293 HD
ENDBRANCH  10  28
BRANCH  22  30
ATOM     30  O   UNL     1      -0.076   2.185   0.000  1.00  0.00    -0.458 OA
BRANCH  30  31
ATOM     31  C   UNL     1      -1.293   3.062   0.000  1.00  0.00     0.303 C 
ATOM     32  C   UNL     1      -1.141   4.555   0.000  1.00  0.00     0.139 C 
ATOM     33  O   UNL     1      -2.769   2.797   0.000  1.00  0.00    -0.253 OA
ENDBRANCH  30  31
ENDBRANCH  22  30
BRANCH  21  34
ATOM     34  O   UNL     1      -2.813   0.956   0.000  1.00  0.00    -0.457 OA
BRANCH  34  35
ATOM     35  C   UNL     1      -2.661   2.448   0.000  1.00  0.00     0.308 C 
ATOM     36  O   UNL     1      -2.034   2.941   0.000  1.00  0.00    -0.252 OA
BRANCH  35  37
ATOM     37  C   UNL     1      -3.877   3.325   0.000  1.00  0.00     0.093 C 
ATOM     38  C   UNL     1      -3.726   4.818   0.000  1.00  0.00     0.019 C 
ATOM     39  C   UNL     1      -5.246   2.711   0.000  1.00  0.00     0.019 C 
ENDBRANCH  35  37
ENDBRANCH  34  35
ENDBRANCH  21  34
BRANCH  18  40
ATOM     40  C   UNL     1      -4.386  -1.841   0.000  1.00  0.00     0.044 C 
ATOM     41  C   UNL     1      -5.597  -2.727   0.000  1.00  0.00     0.059 C 
ATOM     42  C   UNL     1      -4.855  -0.416   0.000  1.00  0.00     0.336 C 
ATOM     43  C   UNL     1      -6.814  -1.850   0.000  1.00  0.00     0.333 C 
ATOM     44  O   UNL     1      -6.355  -0.421   0.000  1.00  0.00    -0.429 OA
ATOM     45  O   UNL     1      -3.977   0.800   0.000  1.00  0.00    -0.246 OA
BRANCH  43  46
ATOM     46  O   UNL     1      -8.239  -2.318   0.000  1.00  0.00    -0.355 OA
ATOM     47  H   UNL     1       0.000   0.000   0.000  1.00  0.00     0.215 HD
ENDBRANCH  43  46
ENDBRANCH  18  40
TORSDOF 10
