REMARK SMILES CC1OC(C)c2c(cc3cc(O)cc(O[C@@H]4O[C@H](CO)[C@@H](O)[C@H](O)[C@H]4O)c3c2O)C1=O
REMARK SMILES IDX 16 1 17 2 18 3 21 4 23 5 25 6 15 7 14 8 2 9 3 10 30 11 4 12
REMARK SMILES IDX 7 13 6 14 8 15 28 16 9 17 27 18 10 19 11 20 13 21 1 22 31 23
REMARK SMILES IDX 5 24 29 25 12 27 26 29 19 31 20 32 24 34 22 36
REMARK H PARENT 29 26 12 28 26 30 20 33 24 35 22 37
ROOT
ATOM      1  C   UNL     1       2.711   0.748   0.000  1.00  0.00     0.339 C 
ATOM      2  O   UNL     1       3.458  -0.553   0.000  1.00  0.00    -0.332 OA
ATOM      3  C   UNL     1       4.958  -0.556   0.000  1.00  0.00     0.179 C 
ATOM      4  C   UNL     1       5.711   0.741   0.000  1.00  0.00     0.177 C 
ATOM      5  C   UNL     1       4.964   2.042   0.000  1.00  0.00     0.180 C 
ATOM      6  C   UNL     1       3.464   2.046   0.000  1.00  0.00     0.214 C 
ENDROOT
BRANCH   1   7
ATOM      7  O   UNL     1       1.211   0.751   0.000  1.00  0.00    -0.461 OA
BRANCH   7   8
ATOM      8  C   UNL     1       0.458  -0.546   0.000  1.00  0.00     0.138 A 
ATOM      9  C   UNL     1      -6.289   0.769   0.000  1.00  0.00     0.187 C 
ATOM     10  O   UNL     1      -5.536   2.066   0.000  1.00  0.00    -0.363 OA
ATOM     11  C   UNL     1      -5.542  -0.532   0.000  1.00  0.00     0.191 C 
ATOM     12  C   UNL     1      -4.036   2.062   0.000  1.00  0.00     0.150 C 
ATOM     13  C   UNL     1      -4.042  -0.536   0.000  1.00  0.00     0.030 A 
ATOM     14  C   UNL     1      -3.289   0.762   0.000  1.00  0.00     0.034 A 
ATOM     15  C   UNL     1      -3.295  -1.836   0.000  1.00  0.00     0.021 A 
ATOM     16  C   UNL     1      -1.789   0.758   0.000  1.00  0.00     0.133 A 
ATOM     17  C   UNL     1      -1.794  -1.840   0.000  1.00  0.00    -0.007 A 
ATOM     18  C   UNL     1      -1.042  -0.542   0.000  1.00  0.00     0.066 A 
ATOM     19  C   UNL     1      -1.048  -3.140   0.000  1.00  0.00     0.055 A 
ATOM     20  C   UNL     1       0.453  -3.144   0.000  1.00  0.00     0.119 A 
ATOM     21  C   UNL     1       1.206  -1.847   0.000  1.00  0.00     0.093 A 
ATOM     22  C   UNL     1      -7.789   0.772   0.000  1.00  0.00     0.047 C 
ATOM     23  O   UNL     1      -6.295  -1.829   0.000  1.00  0.00    -0.291 OA
ATOM     24  C   UNL     1      -3.283   3.360   0.000  1.00  0.00     0.044 C 
BRANCH  16  25
ATOM     25  O   UNL     1      -1.036   2.056   0.000  1.00  0.00    -0.507 OA
ATOM     26  H   UNL     1       0.000   0.000   0.000  1.00  0.00     0.293 HD
ENDBRANCH  16  25
BRANCH  20  27
ATOM     27  O   UNL     1       1.200  -4.445   0.000  1.00  0.00    -0.508 OA
ATOM     28  H   UNL     1       0.000   0.000   0.000  1.00  0.00     0.293 HD
ENDBRANCH  20  27
ENDBRANCH   7   8
ENDBRANCH   1   7
BRANCH   6  29
ATOM     29  O   UNL     1       2.717   3.346   0.000  1.00  0.00    -0.384 OA
ATOM     30  H   UNL     1       0.000   0.000   0.000  1.00  0.00     0.211 HD
ENDBRANCH   6  29
BRANCH   3  31
ATOM     31  C   UNL     1       5.705  -1.857   0.000  1.00  0.00     0.191 C 
BRANCH  31  32
ATOM     32  O   UNL     1       4.952  -3.154   0.000  1.00  0.00    -0.394 OA
ATOM     33  H   UNL     1       0.000   0.000   0.000  1.00  0.00     0.210 HD
ENDBRANCH  31  32
ENDBRANCH   3  31
BRANCH   5  34
ATOM     34  O   UNL     1       5.717   3.339   0.000  1.00  0.00    -0.387 OA
ATOM     35  H   UNL     1       0.000   0.000   0.000  1.00  0.00     0.211 HD
ENDBRANCH   5  34
BRANCH   4  36
ATOM     36  O   UNL     1       7.211   0.738   0.000  1.00  0.00    -0.387 OA
ATOM     37  H   UNL     1       0.000   0.000   0.000  1.00  0.00     0.211 HD
ENDBRANCH   4  36
TORSDOF 9
