REMARK SMILES C=CC(C)(C)c1cc2cc3c(cc2oc1=O)O[C@H](C(C)(C)O)C3
REMARK SMILES IDX 6 1 7 2 8 3 9 4 10 5 11 6 12 7 13 8 14 9 15 10 16 11 17 12
REMARK SMILES IDX 18 13 23 14 3 15 4 16 5 17 2 18 1 19 19 20 20 21 21 22 22 23
REMARK H PARENT 22 24
ROOT
ATOM      1  C   UNL     1       3.230  -0.077   0.000  1.00  0.00     0.048 A 
ATOM      2  C   UNL     1       2.044   0.841   0.000  1.00  0.00     0.024 A 
ATOM      3  C   UNL     1       0.656   0.273   0.000  1.00  0.00     0.018 A 
ATOM      4  C   UNL     1      -0.530   1.191   0.000  1.00  0.00     0.019 A 
ATOM      5  C   UNL     1      -1.919   0.623   0.000  1.00  0.00    -0.001 A 
ATOM      6  C   UNL     1      -2.121  -0.864   0.000  1.00  0.00     0.126 A 
ATOM      7  C   UNL     1      -0.934  -1.782   0.000  1.00  0.00     0.094 A 
ATOM      8  C   UNL     1       0.454  -1.214   0.000  1.00  0.00     0.142 A 
ATOM      9  O   UNL     1       1.640  -2.132   0.000  1.00  0.00    -0.422 OA
ATOM     10  C   UNL     1       3.028  -1.563   0.000  1.00  0.00     0.340 A 
ATOM     11  O   UNL     1       4.214  -2.482   0.000  1.00  0.00    -0.246 OA
ATOM     12  O   UNL     1      -3.597  -1.131   0.000  1.00  0.00    -0.487 OA
ATOM     13  C   UNL     1      -4.307   0.191   0.000  1.00  0.00     0.209 C 
ATOM     14  C   UNL     1      -3.270   1.274   0.000  1.00  0.00     0.087 C 
ENDROOT
BRANCH   1  15
ATOM     15  C   UNL     1       4.618   0.491   0.000  1.00  0.00     0.014 C 
ATOM     16  C   UNL     1       5.187  -0.897   0.000  1.00  0.00     0.021 C 
ATOM     17  C   UNL     1       4.050   1.879   0.000  1.00  0.00     0.021 C 
BRANCH  15  18
ATOM     18  C   UNL     1       6.007   1.059   0.000  1.00  0.00    -0.024 C 
ATOM     19  C   UNL     1       6.209   2.546   0.000  1.00  0.00     0.005 C 
ENDBRANCH  15  18
ENDBRANCH   1  15
BRANCH  13  20
ATOM     20  C   UNL     1      -5.793   0.393   0.000  1.00  0.00     0.096 C 
ATOM     21  C   UNL     1      -5.995  -1.094   0.000  1.00  0.00     0.046 C 
ATOM     22  C   UNL     1      -5.591   1.879   0.000  1.00  0.00     0.046 C 
BRANCH  20  23
ATOM     23  O   UNL     1      -7.279   0.595   0.000  1.00  0.00    -0.387 OA
ATOM     24  H   UNL     1       0.000   0.000   0.000  1.00  0.00     0.211 HD
ENDBRANCH  20  23
ENDBRANCH  13  20
TORSDOF 4
