REMARK SMILES COc1c2ccoc2c(OCC=C(C)C)c2oc(=O)ccc12
REMARK SMILES IDX 10 1 9 2 3 3 4 4 22 5 5 6 8 7 16 8 21 9 6 10 7 11 17 12
REMARK SMILES IDX 20 13 18 14 19 15 2 16 1 17 11 18 12 19 13 20 14 21 15 22
REMARK H PARENT
ROOT
ATOM      1  O   UNL     1       1.113   1.714   0.000  1.00  0.00    -0.482 OA
ENDROOT
BRANCH   1   2
ATOM      2  C   UNL     1      -0.169   0.935   0.000  1.00  0.00     0.206 A 
ATOM      3  C   UNL     1      -2.733  -0.621   0.000  1.00  0.00     0.141 A 
ATOM      4  C   UNL     1      -2.766   0.878   0.000  1.00  0.00     0.067 A 
ATOM      5  C   UNL     1      -1.418  -1.343   0.000  1.00  0.00     0.064 A 
ATOM      6  C   UNL     1      -3.903   1.857   0.000  1.00  0.00     0.055 A 
ATOM      7  C   UNL     1      -1.484   1.657   0.000  1.00  0.00     0.183 A 
ATOM      8  C   UNL     1      -0.136  -0.564   0.000  1.00  0.00     0.187 A 
ATOM      9  C   UNL     1      -1.385  -2.842   0.000  1.00  0.00     0.023 A 
ATOM     10  C   UNL     1      -3.323   3.241   0.000  1.00  0.00     0.197 A 
ATOM     11  O   UNL     1      -1.828   3.117   0.000  1.00  0.00    -0.460 OA
ATOM     12  O   UNL     1       1.179  -1.286   0.000  1.00  0.00    -0.418 OA
ATOM     13  C   UNL     1      -0.070  -3.563   0.000  1.00  0.00     0.095 A 
ATOM     14  C   UNL     1       1.212  -2.785   0.000  1.00  0.00     0.336 A 
ATOM     15  O   UNL     1       2.527  -3.507   0.000  1.00  0.00    -0.246 OA
BRANCH   3  16
ATOM     16  O   UNL     1      -4.016  -1.399   0.000  1.00  0.00    -0.495 OA
ATOM     17  C   UNL     1      -5.331  -0.678   0.000  1.00  0.00     0.278 C 
ENDBRANCH   3  16
ENDBRANCH   1   2
BRANCH   1  18
ATOM     18  C   UNL     1       2.429   0.992   0.000  1.00  0.00     0.257 C 
BRANCH  18  19
ATOM     19  C   UNL     1       3.711   1.771   0.000  1.00  0.00     0.012 C 
BRANCH  19  20
ATOM     20  C   UNL     1       5.026   1.049   0.000  1.00  0.00    -0.077 C 
ATOM     21  C   UNL     1       6.308   1.828   0.000  1.00  0.00     0.039 C 
ATOM     22  C   UNL     1       5.059  -0.450   0.000  1.00  0.00     0.039 C 
ENDBRANCH  19  20
ENDBRANCH  18  19
ENDBRANCH   1  18
TORSDOF 5
