REMARK SMILES COc1cc2c(cc1O)O[C@H](c1cc(OC)c3c(c1)OCO3)[C@H]2C
REMARK SMILES IDX 3 1 4 2 5 3 6 4 7 5 8 6 10 7 11 8 23 9 24 10 2 11 1 12 9 13
REMARK SMILES IDX 12 15 13 16 19 17 14 18 18 19 17 20 20 21 22 22 21 23 15 24
REMARK SMILES IDX 16 25
REMARK H PARENT 9 14
ROOT
ATOM      1  C   UNL     1       4.950  -0.162   0.000  1.00  0.00     0.161 A 
ATOM      2  C   UNL     1       3.694  -0.982   0.000  1.00  0.00     0.058 A 
ATOM      3  C   UNL     1       2.356  -0.304   0.000  1.00  0.00     0.005 A 
ATOM      4  C   UNL     1       2.274   1.193   0.000  1.00  0.00     0.127 A 
ATOM      5  C   UNL     1       3.530   2.013   0.000  1.00  0.00     0.097 A 
ATOM      6  C   UNL     1       4.868   1.335   0.000  1.00  0.00     0.161 A 
ATOM      7  O   UNL     1       0.824   1.578   0.000  1.00  0.00    -0.485 OA
ATOM      8  C   UNL     1       0.010   0.318   0.000  1.00  0.00     0.211 C 
ATOM      9  C   UNL     1       0.957  -0.846   0.000  1.00  0.00     0.066 C 
ATOM     10  C   UNL     1       0.572  -2.295   0.000  1.00  0.00     0.017 C 
ENDROOT
BRANCH   1  11
ATOM     11  O   UNL     1       6.288  -0.840   0.000  1.00  0.00    -0.493 OA
ATOM     12  C   UNL     1       6.370  -2.338   0.000  1.00  0.00     0.278 C 
ENDBRANCH   1  11
BRANCH   6  13
ATOM     13  O   UNL     1       6.124   2.156   0.000  1.00  0.00    -0.504 OA
ATOM     14  H   UNL     1       0.000   0.000   0.000  1.00  0.00     0.293 HD
ENDBRANCH   6  13
BRANCH   8  15
ATOM     15  C   UNL     1      -1.488   0.236   0.000  1.00  0.00     0.001 A 
ATOM     16  C   UNL     1      -2.166  -1.102   0.000  1.00  0.00     0.058 A 
ATOM     17  C   UNL     1      -2.308   1.492   0.000  1.00  0.00     0.058 A 
ATOM     18  C   UNL     1      -3.663  -1.185   0.000  1.00  0.00     0.165 A 
ATOM     19  C   UNL     1      -3.806   1.410   0.000  1.00  0.00     0.170 A 
ATOM     20  C   UNL     1      -4.483   0.071   0.000  1.00  0.00     0.207 A 
ATOM     21  O   UNL     1      -4.869   2.468   0.000  1.00  0.00    -0.453 OA
ATOM     22  O   UNL     1      -5.965   0.302   0.000  1.00  0.00    -0.450 OA
ATOM     23  C   UNL     1      -6.204   1.784   0.000  1.00  0.00     0.468 C 
BRANCH  18  24
ATOM     24  O   UNL     1      -4.341  -2.523   0.000  1.00  0.00    -0.493 OA
ATOM     25  C   UNL     1      -3.521  -3.779   0.000  1.00  0.00     0.278 C 
ENDBRANCH  18  24
ENDBRANCH   8  15
TORSDOF 4
