REMARK SMILES C[C@H]1N[C@H](CCCCCCCCCCC(=O)O)CC[C@H]1O
REMARK SMILES IDX 9 1 8 2 7 3 6 4 5 5 4 6 2 7 3 8 20 9 19 10 18 11 1 12 21 14
REMARK SMILES IDX 10 16 11 17 12 18 13 19 14 20 15 21 16 22 17 23
REMARK H PARENT 3 13 21 15 17 24
ROOT
ATOM      1  C   UNL     1      -1.788  -0.559   0.000  1.00  0.00     0.000 C 
ENDROOT
BRANCH   1   2
ATOM      2  C   UNL     1      -0.428   0.074   0.000  1.00  0.00     0.000 C 
BRANCH   2   3
ATOM      3  C   UNL     1       0.800  -0.788   0.000  1.00  0.00     0.000 C 
BRANCH   3   4
ATOM      4  C   UNL     1       2.160  -0.155   0.000  1.00  0.00     0.002 C 
BRANCH   4   5
ATOM      5  C   UNL     1       3.388  -1.016   0.000  1.00  0.00     0.019 C 
BRANCH   5   6
ATOM      6  C   UNL     1       4.748  -0.383   0.000  1.00  0.00     0.054 C 
ATOM      7  C   UNL     1       7.336  -0.611   0.000  1.00  0.00     0.079 C 
ATOM      8  N   UNL     1       5.976  -1.244   0.000  1.00  0.00    -0.309 NA
ATOM      9  C   UNL     1       7.468   0.883   0.000  1.00  0.00     0.131 C 
ATOM     10  C   UNL     1       6.239   1.744   0.000  1.00  0.00     0.035 C 
ATOM     11  C   UNL     1       4.880   1.111   0.000  1.00  0.00     0.021 C 
ATOM     12  C   UNL     1       8.564  -1.472   0.000  1.00  0.00     0.027 C 
ATOM     13  H   UNL     1       0.000   0.000   0.000  1.00  0.00     0.123 HD
BRANCH   9  14
ATOM     14  O   UNL     1       8.828   1.516   0.000  1.00  0.00    -0.392 OA
ATOM     15  H   UNL     1       0.000   0.000   0.000  1.00  0.00     0.211 HD
ENDBRANCH   9  14
ENDBRANCH   5   6
ENDBRANCH   4   5
ENDBRANCH   3   4
ENDBRANCH   2   3
ENDBRANCH   1   2
BRANCH   1  16
ATOM     16  C   UNL     1      -3.016   0.302   0.000  1.00  0.00     0.000 C 
BRANCH  16  17
ATOM     17  C   UNL     1      -4.376  -0.331   0.000  1.00  0.00     0.000 C 
BRANCH  17  18
ATOM     18  C   UNL     1      -5.604   0.530   0.000  1.00  0.00     0.001 C 
BRANCH  18  19
ATOM     19  C   UNL     1      -6.964  -0.103   0.000  1.00  0.00     0.012 C 
BRANCH  19  20
ATOM     20  C   UNL     1      -8.192   0.758   0.000  1.00  0.00     0.122 C 
BRANCH  20  21
ATOM     21  C   UNL     1      -9.552   0.125   0.000  1.00  0.00     0.303 C 
ATOM     22  O   UNL     1      -9.684  -1.369   0.000  1.00  0.00    -0.252 OA
BRANCH  21  23
ATOM     23  O   UNL     1     -10.780   0.987   0.000  1.00  0.00    -0.481 OA
ATOM     24  H   UNL     1       0.000   0.000   0.000  1.00  0.00     0.296 HD
ENDBRANCH  21  23
ENDBRANCH  20  21
ENDBRANCH  19  20
ENDBRANCH  18  19
ENDBRANCH  17  18
ENDBRANCH  16  17
ENDBRANCH   1  16
TORSDOF 13
