REMARK SMILES C=CCC1=C[C@](OC)([C@H](C)Cc2ccc3c(c2)OCO3)C(OC)=CC1=O
REMARK SMILES IDX 4 1 5 2 6 3 21 4 24 5 25 6 26 7 3 8 2 9 1 10 7 11 8 12 9 13
REMARK SMILES IDX 10 14 11 15 12 16 13 17 17 18 14 19 16 20 15 21 18 22 20 23
REMARK SMILES IDX 19 24 22 25 23 26
REMARK H PARENT
ROOT
ATOM      1  C   UNL     1       3.594   0.207   0.000  1.00  0.00     0.003 C 
ATOM      2  C   UNL     1       2.392   1.104   0.000  1.00  0.00     0.024 C 
ATOM      3  C   UNL     1       1.014   0.511   0.000  1.00  0.00     0.146 C 
ATOM      4  C   UNL     1       0.838  -0.978   0.000  1.00  0.00     0.136 C 
ATOM      5  C   UNL     1       2.040  -1.875   0.000  1.00  0.00     0.097 C 
ATOM      6  C   UNL     1       3.418  -1.283   0.000  1.00  0.00     0.185 C 
ATOM      7  O   UNL     1       4.620  -2.180   0.000  1.00  0.00    -0.290 OA
ENDROOT
BRANCH   1   8
ATOM      8  C   UNL     1       4.972   0.799   0.000  1.00  0.00     0.066 C 
BRANCH   8   9
ATOM      9  C   UNL     1       6.174  -0.098   0.000  1.00  0.00    -0.030 C 
ATOM     10  C   UNL     1       7.552   0.495   0.000  1.00  0.00     0.004 C 
ENDBRANCH   8   9
ENDBRANCH   1   8
BRANCH   3  11
ATOM     11  O   UNL     1      -0.484   0.426   0.000  1.00  0.00    -0.366 OA
ATOM     12  C   UNL     1      -1.159  -0.914   0.000  1.00  0.00     0.196 C 
ENDBRANCH   3  11
BRANCH   3  13
ATOM     13  C   UNL     1       0.669   1.971   0.000  1.00  0.00     0.034 C 
ATOM     14  C   UNL     1       1.762   2.999   0.000  1.00  0.00     0.012 C 
BRANCH  13  15
ATOM     15  C   UNL     1      -0.767   2.403   0.000  1.00  0.00     0.042 C 
BRANCH  15  16
ATOM     16  C   UNL     1      -1.859   1.375   0.000  1.00  0.00    -0.044 A 
ATOM     17  C   UNL     1      -1.515  -0.085   0.000  1.00  0.00     0.008 A 
ATOM     18  C   UNL     1      -3.296   1.807   0.000  1.00  0.00     0.054 A 
ATOM     19  C   UNL     1      -2.607  -1.113   0.000  1.00  0.00     0.051 A 
ATOM     20  C   UNL     1      -4.388   0.779   0.000  1.00  0.00     0.166 A 
ATOM     21  C   UNL     1      -4.044  -0.681   0.000  1.00  0.00     0.165 A 
ATOM     22  O   UNL     1      -5.883   0.902   0.000  1.00  0.00    -0.454 OA
ATOM     23  O   UNL     1      -5.326  -1.460   0.000  1.00  0.00    -0.454 OA
ATOM     24  C   UNL     1      -6.463  -0.481   0.000  1.00  0.00     0.468 C 
ENDBRANCH  15  16
ENDBRANCH  13  15
ENDBRANCH   3  13
BRANCH   4  25
ATOM     25  O   UNL     1      -0.540  -1.571   0.000  1.00  0.00    -0.498 OA
ATOM     26  C   UNL     1      -0.716  -3.061   0.000  1.00  0.00     0.278 C 
ENDBRANCH   4  25
TORSDOF 7
