REMARK SMILES COc1cc(=O)[nH]c2ccccc12
REMARK SMILES IDX 3 1 4 2 5 3 6 4 7 5 8 6 9 7 10 8 11 9 12 10 13 11 2 13 1 14
REMARK H PARENT 7 12
ROOT
ATOM      1  C   UNL     1      -0.948   0.890   0.000  1.00  0.00     0.133 A 
ATOM      2  C   UNL     1      -2.022  -0.156   0.000  1.00  0.00     0.118 A 
ATOM      3  C   UNL     1      -1.653  -1.610   0.000  1.00  0.00     0.252 A 
ATOM      4  O   UNL     1      -2.728  -2.656   0.000  1.00  0.00    -0.269 OA
ATOM      5  N   UNL     1      -0.210  -2.017   0.000  1.00  0.00    -0.322 N 
ATOM      6  C   UNL     1       0.865  -0.971   0.000  1.00  0.00     0.052 A 
ATOM      7  C   UNL     1       2.308  -1.379   0.000  1.00  0.00     0.027 A 
ATOM      8  C   UNL     1       3.383  -0.332   0.000  1.00  0.00     0.002 A 
ATOM      9  C   UNL     1       3.014   1.122   0.000  1.00  0.00     0.001 A 
ATOM     10  C   UNL     1       1.571   1.529   0.000  1.00  0.00     0.014 A 
ATOM     11  C   UNL     1       0.496   0.483   0.000  1.00  0.00     0.040 A 
ATOM     12  H   UNL     1       0.000   0.000   0.000  1.00  0.00     0.170 HD
ENDROOT
BRANCH   1  13
ATOM     13  O   UNL     1      -1.317   2.344   0.000  1.00  0.00    -0.496 OA
ATOM     14  C   UNL     1      -2.760   2.752   0.000  1.00  0.00     0.278 C 
ENDBRANCH   1  13
TORSDOF 1
