REMARK SMILES COc1c(-c2ccccc2)oc2c(ccc3occc32)c1=O
REMARK SMILES IDX 3 1 4 2 11 3 12 4 13 5 14 6 15 7 16 8 20 9 19 10 18 11 17 12
REMARK SMILES IDX 21 13 22 14 2 15 1 16 5 17 6 18 10 19 7 20 9 21 8 22
REMARK H PARENT
ROOT
ATOM      1  C   UNL     1       0.979   1.558   0.000  1.00  0.00     0.210 A 
ATOM      2  C   UNL     1       1.090   0.062   0.000  1.00  0.00     0.180 A 
ATOM      3  O   UNL     1      -0.150  -0.782   0.000  1.00  0.00    -0.451 OA
ATOM      4  C   UNL     1      -1.501  -0.130   0.000  1.00  0.00     0.150 A 
ATOM      5  C   UNL     1      -1.612   1.366   0.000  1.00  0.00     0.070 A 
ATOM      6  C   UNL     1      -2.963   2.018   0.000  1.00  0.00     0.020 A 
ATOM      7  C   UNL     1      -4.203   1.174   0.000  1.00  0.00     0.049 A 
ATOM      8  C   UNL     1      -4.092  -0.322   0.000  1.00  0.00     0.137 A 
ATOM      9  C   UNL     1      -2.741  -0.974   0.000  1.00  0.00     0.064 A 
ATOM     10  C   UNL     1      -2.944  -2.460   0.000  1.00  0.00     0.054 A 
ATOM     11  C   UNL     1      -4.420  -2.727   0.000  1.00  0.00     0.196 A 
ATOM     12  O   UNL     1      -5.129  -1.405   0.000  1.00  0.00    -0.464 OA
ATOM     13  C   UNL     1      -0.372   2.210   0.000  1.00  0.00     0.235 A 
ATOM     14  O   UNL     1      -0.483   3.706   0.000  1.00  0.00    -0.285 OA
ENDROOT
BRANCH   1  15
ATOM     15  O   UNL     1       2.219   2.402   0.000  1.00  0.00    -0.490 OA
ATOM     16  C   UNL     1       3.570   1.750   0.000  1.00  0.00     0.278 C 
ENDBRANCH   1  15
BRANCH   2  17
ATOM     17  C   UNL     1       2.441  -0.590   0.000  1.00  0.00     0.021 A 
ATOM     18  C   UNL     1       2.552  -2.085   0.000  1.00  0.00     0.012 A 
ATOM     19  C   UNL     1       3.681   0.254   0.000  1.00  0.00     0.012 A 
ATOM     20  C   UNL     1       3.903  -2.737   0.000  1.00  0.00     0.001 A 
ATOM     21  C   UNL     1       5.032  -0.398   0.000  1.00  0.00     0.001 A 
ATOM     22  C   UNL     1       5.143  -1.893   0.000  1.00  0.00     0.000 A 
ENDBRANCH   2  17
TORSDOF 2
