REMARK SMILES CS[C@@H]1C(=O)N(C)[C@@](Cc2ccc(OCC=C(C)C)cc2)(SC)C(=O)N1C
REMARK SMILES IDX 10 1 11 2 12 3 13 4 20 5 21 6 9 7 8 8 3 9 4 10 26 11 6 12
REMARK SMILES IDX 24 13 5 14 27 15 7 16 25 17 2 18 1 19 22 20 23 21 14 22
REMARK SMILES IDX 15 23 16 24 17 25 18 26 19 27
REMARK H PARENT
ROOT
ATOM      1  C   UNL     1       0.216   1.550   0.000  1.00  0.00    -0.044 A 
ATOM      2  C   UNL     1       0.908   0.219   0.000  1.00  0.00     0.007 A 
ATOM      3  C   UNL     1       2.407   0.152   0.000  1.00  0.00     0.047 A 
ATOM      4  C   UNL     1       3.214   1.417   0.000  1.00  0.00     0.119 A 
ATOM      5  C   UNL     1       2.522   2.748   0.000  1.00  0.00     0.047 A 
ATOM      6  C   UNL     1       1.023   2.814   0.000  1.00  0.00     0.007 A 
ENDROOT
BRANCH   1   7
ATOM      7  C   UNL     1      -1.282   1.617   0.000  1.00  0.00     0.086 C 
BRANCH   7   8
ATOM      8  C   UNL     1      -2.089   0.352   0.000  1.00  0.00     0.172 C 
ATOM      9  C   UNL     1      -4.951  -0.548   0.000  1.00  0.00     0.232 C 
ATOM     10  C   UNL     1      -4.625   0.916   0.000  1.00  0.00     0.257 C 
ATOM     11  N   UNL     1      -3.846  -1.562   0.000  1.00  0.00    -0.322 N 
ATOM     12  N   UNL     1      -3.194   1.366   0.000  1.00  0.00    -0.320 N 
ATOM     13  C   UNL     1      -2.415  -1.112   0.000  1.00  0.00     0.260 C 
ATOM     14  O   UNL     1      -5.730   1.930   0.000  1.00  0.00    -0.271 OA
ATOM     15  C   UNL     1      -4.171  -3.026   0.000  1.00  0.00     0.148 C 
ATOM     16  C   UNL     1      -2.868   2.830   0.000  1.00  0.00     0.149 C 
ATOM     17  O   UNL     1      -1.310  -2.126   0.000  1.00  0.00    -0.271 OA
BRANCH   9  18
ATOM     18  S   UNL     1      -6.382  -0.998   0.000  1.00  0.00    -0.131 SA
ATOM     19  C   UNL     1      -6.707  -2.462   0.000  1.00  0.00     0.088 C 
ENDBRANCH   9  18
BRANCH   8  20
ATOM     20  S   UNL     1      -0.704  -0.223   0.000  1.00  0.00    -0.127 SA
ATOM     21  C   UNL     1      -0.509  -1.710   0.000  1.00  0.00     0.088 C 
ENDBRANCH   8  20
ENDBRANCH   7   8
ENDBRANCH   1   7
BRANCH   4  22
ATOM     22  O   UNL     1       4.712   1.350   0.000  1.00  0.00    -0.490 OA
BRANCH  22  23
ATOM     23  C   UNL     1       5.404   0.019   0.000  1.00  0.00     0.257 C 
BRANCH  23  24
ATOM     24  C   UNL     1       6.902  -0.047   0.000  1.00  0.00     0.012 C 
BRANCH  24  25
ATOM     25  C   UNL     1       7.594  -1.378   0.000  1.00  0.00    -0.077 C 
ATOM     26  C   UNL     1       9.092  -1.445   0.000  1.00  0.00     0.039 C 
ATOM     27  C   UNL     1       6.787  -2.643   0.000  1.00  0.00     0.039 C 
ENDBRANCH  24  25
ENDBRANCH  23  24
ENDBRANCH  22  23
ENDBRANCH   4  22
TORSDOF 8
