REMARK SMILES COc1cc([C@H]2c3cc4c(cc3C[C@@H](C)[C@@H]2C)OCO4)ccc1O
REMARK SMILES IDX 3 1 4 2 5 3 21 4 22 5 23 6 2 7 1 8 24 9 6 11 7 12 16 13 8 14
REMARK SMILES IDX 12 15 14 16 9 17 11 18 13 19 10 20 20 21 18 22 19 23 17 24
REMARK SMILES IDX 15 25
REMARK H PARENT 24 10
ROOT
ATOM      1  C   UNL     1       3.837   0.824   0.000  1.00  0.00     0.160 A 
ATOM      2  C   UNL     1       2.753  -0.212   0.000  1.00  0.00     0.054 A 
ATOM      3  C   UNL     1       1.313   0.209   0.000  1.00  0.00    -0.036 A 
ATOM      4  C   UNL     1       0.958   1.666   0.000  1.00  0.00     0.008 A 
ATOM      5  C   UNL     1       2.042   2.703   0.000  1.00  0.00     0.050 A 
ATOM      6  C   UNL     1       3.482   2.282   0.000  1.00  0.00     0.157 A 
ENDROOT
BRANCH   1   7
ATOM      7  O   UNL     1       5.277   0.404   0.000  1.00  0.00    -0.493 OA
ATOM      8  C   UNL     1       5.633  -1.054   0.000  1.00  0.00     0.278 C 
ENDBRANCH   1   7
BRANCH   6   9
ATOM      9  O   UNL     1       4.566   3.318   0.000  1.00  0.00    -0.504 OA
ATOM     10  H   UNL     1       0.000   0.000   0.000  1.00  0.00     0.293 HD
ENDBRANCH   6   9
BRANCH   3  11
ATOM     11  C   UNL     1       0.229  -0.828   0.000  1.00  0.00     0.053 C 
ATOM     12  C   UNL     1      -1.211  -0.406   0.000  1.00  0.00    -0.033 A 
ATOM     13  C   UNL     1       0.584  -2.285   0.000  1.00  0.00     0.001 C 
ATOM     14  C   UNL     1      -1.566   1.051   0.000  1.00  0.00     0.055 A 
ATOM     15  C   UNL     1      -2.295  -1.443   0.000  1.00  0.00    -0.040 A 
ATOM     16  C   UNL     1      -0.500  -3.321   0.000  1.00  0.00    -0.006 C 
ATOM     17  C   UNL     1      -3.006   1.472   0.000  1.00  0.00     0.166 A 
ATOM     18  C   UNL     1      -3.735  -1.022   0.000  1.00  0.00     0.054 A 
ATOM     19  C   UNL     1      -1.940  -2.900   0.000  1.00  0.00     0.039 C 
ATOM     20  C   UNL     1      -4.090   0.435   0.000  1.00  0.00     0.166 A 
ATOM     21  O   UNL     1      -3.656   2.823   0.000  1.00  0.00    -0.454 OA
ATOM     22  O   UNL     1      -5.411   1.146   0.000  1.00  0.00    -0.454 OA
ATOM     23  C   UNL     1      -5.143   2.622   0.000  1.00  0.00     0.468 C 
ATOM     24  C   UNL     1       2.024  -2.706   0.000  1.00  0.00     0.009 C 
ATOM     25  C   UNL     1      -0.145  -4.779   0.000  1.00  0.00     0.008 C 
ENDBRANCH   3  11
TORSDOF 3
