REMARK SMILES COc1ccc(Cc2nccc3cc4c(cc23)OCO4)cc1
REMARK SMILES IDX 3 1 4 2 5 3 6 4 21 5 22 6 2 7 1 8 7 9 8 10 9 11 17 12 10 13
REMARK SMILES IDX 16 14 12 15 11 16 15 17 13 18 14 19 18 20 20 21 19 22
REMARK H PARENT
ROOT
ATOM      1  C   UNL     1       5.221  -0.185   0.000  1.00  0.00     0.118 A 
ATOM      2  C   UNL     1       4.629  -1.563   0.000  1.00  0.00     0.047 A 
ATOM      3  C   UNL     1       3.140  -1.740   0.000  1.00  0.00     0.008 A 
ATOM      4  C   UNL     1       2.242  -0.538   0.000  1.00  0.00    -0.042 A 
ATOM      5  C   UNL     1       2.834   0.840   0.000  1.00  0.00     0.008 A 
ATOM      6  C   UNL     1       4.324   1.017   0.000  1.00  0.00     0.047 A 
ENDROOT
BRANCH   1   7
ATOM      7  O   UNL     1       6.711  -0.009   0.000  1.00  0.00    -0.497 OA
ATOM      8  C   UNL     1       7.609  -1.210   0.000  1.00  0.00     0.278 C 
ENDBRANCH   1   7
BRANCH   4   9
ATOM      9  C   UNL     1       0.753  -0.714   0.000  1.00  0.00     0.092 C 
BRANCH   9  10
ATOM     10  C   UNL     1      -0.145   0.487   0.000  1.00  0.00     0.053 A 
ATOM     11  N   UNL     1       0.447   1.866   0.000  1.00  0.00    -0.260 NA
ATOM     12  C   UNL     1      -1.635   0.311   0.000  1.00  0.00     0.008 A 
ATOM     13  C   UNL     1      -0.451   3.067   0.000  1.00  0.00     0.112 A 
ATOM     14  C   UNL     1      -2.227  -1.067   0.000  1.00  0.00     0.061 A 
ATOM     15  C   UNL     1      -2.532   1.513   0.000  1.00  0.00    -0.011 A 
ATOM     16  C   UNL     1      -1.940   2.891   0.000  1.00  0.00     0.029 A 
ATOM     17  C   UNL     1      -3.716  -1.244   0.000  1.00  0.00     0.166 A 
ATOM     18  C   UNL     1      -4.022   1.336   0.000  1.00  0.00     0.059 A 
ATOM     19  C   UNL     1      -4.614  -0.042   0.000  1.00  0.00     0.166 A 
ATOM     20  O   UNL     1      -4.582  -2.469   0.000  1.00  0.00    -0.454 OA
ATOM     21  O   UNL     1      -6.034  -0.524   0.000  1.00  0.00    -0.454 OA
ATOM     22  C   UNL     1      -6.014  -2.024   0.000  1.00  0.00     0.468 C 
ENDBRANCH   9  10
ENDBRANCH   4   9
TORSDOF 3
