REMARK SMILES CC(C)=CCCC(C)=C1CC=C(C)CC1
REMARK SMILES IDX 5 1 4 2 2 3 1 4 3 5 6 6 7 7 8 8 9 9 10 10 15 11 11 12 14 13
REMARK SMILES IDX 12 14 13 15
REMARK H PARENT
ROOT
ATOM      1  C   UNL     1       2.447  -0.200   0.000  1.00  0.00     0.032 C 
ENDROOT
BRANCH   1   2
ATOM      2  C   UNL     1       3.542   0.826   0.000  1.00  0.00    -0.028 C 
BRANCH   2   3
ATOM      3  C   UNL     1       4.978   0.390   0.000  1.00  0.00    -0.080 C 
ATOM      4  C   UNL     1       6.073   1.415   0.000  1.00  0.00     0.039 C 
ATOM      5  C   UNL     1       5.318  -1.071   0.000  1.00  0.00     0.039 C 
ENDBRANCH   2   3
ENDBRANCH   1   2
BRANCH   1   6
ATOM      6  C   UNL     1       1.012   0.236   0.000  1.00  0.00     0.035 C 
BRANCH   6   7
ATOM      7  C   UNL     1      -0.083  -0.789   0.000  1.00  0.00    -0.073 C 
ATOM      8  C   UNL     1       0.258  -2.250   0.000  1.00  0.00     0.039 C 
BRANCH   7   9
ATOM      9  C   UNL     1      -1.518  -0.354   0.000  1.00  0.00    -0.067 C 
ATOM     10  C   UNL     1      -2.613  -1.379   0.000  1.00  0.00     0.058 C 
ATOM     11  C   UNL     1      -1.859   1.107   0.000  1.00  0.00     0.035 C 
ATOM     12  C   UNL     1      -4.048  -0.944   0.000  1.00  0.00    -0.024 C 
ATOM     13  C   UNL     1      -3.294   1.543   0.000  1.00  0.00     0.035 C 
ATOM     14  C   UNL     1      -4.389   0.517   0.000  1.00  0.00    -0.077 C 
ATOM     15  C   UNL     1      -5.824   0.953   0.000  1.00  0.00     0.039 C 
ENDBRANCH   7   9
ENDBRANCH   6   7
ENDBRANCH   1   6
TORSDOF 5
