REMARK SMILES C=C(C)[C@H]1C=C2[C@H](C)CC[C@@H]2[C@H](C)CC1
REMARK SMILES IDX 6 1 7 2 8 3 9 4 10 5 11 6 5 7 4 8 2 10 1 11 3 12 12 13 13 14
REMARK SMILES IDX 14 15 15 16
REMARK H PARENT
REMARK Flexibility Score:    8.900
ROOT
ATOM      1  C   UNL     1      -0.839  -0.722   0.000  1.00  0.00    -0.067 C 
ATOM      2  C   UNL     1      -1.838  -1.842   0.000  1.00  0.00     0.012 C 
ATOM      3  C   UNL     1      -1.519  -3.308   0.000  1.00  0.00     0.012 C 
ATOM      4  C   UNL     1      -3.211  -1.238   0.000  1.00  0.00     0.008 C 
ATOM      5  C   UNL     1      -3.061   0.255   0.000  1.00  0.00     0.009 C 
ATOM      6  C   UNL     1      -1.595   0.573   0.000  1.00  0.00     0.018 C 
ENDROOT
BRANCH   1   7
ATOM      7  C   UNL     1       0.645  -0.939   0.000  1.00  0.00    -0.019 C 
BRANCH   7   8
ATOM      8  C   UNL     1       1.740   0.086   0.000  1.00  0.00     0.037 CG0
ATOM      9  G   UNL     1       1.621   1.582   0.000  1.00  0.00     0.000 G0
BRANCH   8  10
ATOM     10  C   UNL     1       3.139  -0.455   0.000  1.00  0.00    -0.074 C 
ATOM     11  C   UNL     1       4.307   0.486   0.000  1.00  0.00     0.008 C 
ATOM     12  C   UNL     1       3.369  -1.937   0.000  1.00  0.00     0.039 C 
ENDBRANCH   8  10
ENDBRANCH   7   8
ENDBRANCH   1   7
BRANCH   6  13
ATOM     13  C   UNL     1      -1.054   1.972   0.000  1.00  0.00    -0.007 C 
ATOM     14  C   UNL     1      -2.079   3.067   0.000  1.00  0.00     0.008 C 
BRANCH  13  15
ATOM     15  C   UNL     1       0.377   2.421   0.000  1.00  0.00     0.005 C 
BRANCH  15  16
ATOM     16  C   UNL     1       1.621   1.582   0.000  1.00  0.00     0.012 CG0
ATOM     17  G   UNL     1       1.740   0.086   0.000  1.00  0.00     0.000 G0
ENDBRANCH  15  16
ENDBRANCH  13  15
ENDBRANCH   6  13
TORSDOF 1
