REMARK SMILES CC(C)=C[C@H]1C[C@](C)(/C=C/c2cccc3c2NCC3)c2cc3[nH]ccc3cc21
REMARK SMILES IDX 5 1 6 2 7 3 8 4 20 5 21 6 22 7 26 8 25 9 24 10 23 11 27 12
REMARK SMILES IDX 28 13 4 15 2 16 1 17 3 18 9 19 10 20 11 21 12 22 16 23 13 24
REMARK SMILES IDX 15 25 17 26 14 27 19 28 18 29
REMARK H PARENT 23 14 17 30
ROOT
ATOM      1  C   UNL     1      -2.369  -1.784   0.000  1.00  0.00     0.043 C 
ATOM      2  C   UNL     1      -0.878  -1.622   0.000  1.00  0.00     0.028 C 
ATOM      3  C   UNL     1      -0.571  -0.154   0.000  1.00  0.00     0.012 C 
ATOM      4  C   UNL     1       0.034   1.218   0.000  1.00  0.00     0.021 C 
ATOM      5  C   UNL     1      -1.873   0.592   0.000  1.00  0.00    -0.032 A 
ATOM      6  C   UNL     1      -2.190   2.058   0.000  1.00  0.00     0.031 A 
ATOM      7  C   UNL     1      -3.618   2.516   0.000  1.00  0.00     0.046 A 
ATOM      8  C   UNL     1      -4.729   1.509   0.000  1.00  0.00    -0.000 A 
ATOM      9  C   UNL     1      -6.031   2.255   0.000  1.00  0.00     0.028 A 
ATOM     10  C   UNL     1      -5.724   3.723   0.000  1.00  0.00     0.083 A 
ATOM     11  N   UNL     1      -4.232   3.885   0.000  1.00  0.00    -0.361 N 
ATOM     12  C   UNL     1      -4.412   0.043   0.000  1.00  0.00     0.015 A 
ATOM     13  C   UNL     1      -2.984  -0.416   0.000  1.00  0.00    -0.036 A 
ATOM     14  H   UNL     1       0.000   0.000   0.000  1.00  0.00     0.166 HD
ENDROOT
BRANCH   1  15
ATOM     15  C   UNL     1      -3.115  -3.086   0.000  1.00  0.00    -0.020 C 
BRANCH  15  16
ATOM     16  C   UNL     1      -2.360  -4.382   0.000  1.00  0.00    -0.080 C 
ATOM     17  C   UNL     1      -3.106  -5.684   0.000  1.00  0.00     0.039 C 
ATOM     18  C   UNL     1      -0.860  -4.377   0.000  1.00  0.00     0.039 C 
ENDBRANCH  15  16
ENDBRANCH   1  15
BRANCH   3  19
ATOM     19  C   UNL     1       0.857  -0.613   0.000  1.00  0.00    -0.015 C 
BRANCH  19  20
ATOM     20  C   UNL     1       1.968   0.395   0.000  1.00  0.00     0.007 C 
BRANCH  20  21
ATOM     21  C   UNL     1       3.397  -0.064   0.000  1.00  0.00    -0.002 A 
ATOM     22  C   UNL     1       3.713  -1.530   0.000  1.00  0.00     0.010 A 
ATOM     23  C   UNL     1       4.508   0.944   0.000  1.00  0.00     0.045 A 
ATOM     24  C   UNL     1       5.142  -1.988   0.000  1.00  0.00     0.001 A 
ATOM     25  C   UNL     1       5.936   0.485   0.000  1.00  0.00    -0.022 A 
ATOM     26  N   UNL     1       4.503   2.444   0.000  1.00  0.00    -0.384 N 
ATOM     27  C   UNL     1       6.253  -0.981   0.000  1.00  0.00     0.006 A 
ATOM     28  C   UNL     1       6.814   1.702   0.000  1.00  0.00     0.059 C 
ATOM     29  C   UNL     1       5.928   2.912   0.000  1.00  0.00     0.118 C 
ATOM     30  H   UNL     1       0.000   0.000   0.000  1.00  0.00     0.160 HD
ENDBRANCH  20  21
ENDBRANCH  19  20
ENDBRANCH   3  19
TORSDOF 5
