REMARK SMILES C=C[C@@]1(C)CC(=O)[C@H]2[C@H](C1)C(=O)C[C@H]1C(C)(C)CCC[C@]21C
REMARK SMILES IDX 3 1 4 2 5 3 6 4 7 5 8 6 9 7 10 8 11 9 12 10 13 11 14 12
REMARK SMILES IDX 15 13 16 14 17 15 18 16 19 17 20 18 21 19 22 20 2 21 1 22
REMARK H PARENT
ROOT
ATOM      1  C   UNL     1      -3.303  -0.445   0.000  1.00  0.00    -0.007 C 
ATOM      2  C   UNL     1      -4.197  -1.650   0.000  1.00  0.00     0.016 C 
ATOM      3  C   UNL     1      -2.875   0.992   0.000  1.00  0.00     0.086 C 
ATOM      4  C   UNL     1      -1.416   1.341   0.000  1.00  0.00     0.138 C 
ATOM      5  O   UNL     1      -0.989   2.778   0.000  1.00  0.00    -0.299 OA
ATOM      6  C   UNL     1      -0.385   0.251   0.000  1.00  0.00     0.073 C 
ATOM      7  C   UNL     1      -0.813  -1.187   0.000  1.00  0.00     0.068 C 
ATOM      8  C   UNL     1      -2.272  -1.535   0.000  1.00  0.00     0.023 C 
ATOM      9  C   UNL     1       0.218  -2.276   0.000  1.00  0.00     0.137 C 
ATOM     10  O   UNL     1      -0.210  -3.714   0.000  1.00  0.00    -0.299 OA
ATOM     11  C   UNL     1       1.677  -1.928   0.000  1.00  0.00     0.080 C 
ATOM     12  C   UNL     1       2.105  -0.490   0.000  1.00  0.00     0.009 C 
ATOM     13  C   UNL     1       3.564  -0.142   0.000  1.00  0.00    -0.032 C 
ATOM     14  C   UNL     1       5.054  -0.313   0.000  1.00  0.00     0.011 C 
ATOM     15  C   UNL     1       3.653  -1.639   0.000  1.00  0.00     0.011 C 
ATOM     16  C   UNL     1       3.992   1.296   0.000  1.00  0.00     0.007 C 
ATOM     17  C   UNL     1       2.961   2.385   0.000  1.00  0.00     0.001 C 
ATOM     18  C   UNL     1       1.502   2.037   0.000  1.00  0.00     0.008 C 
ATOM     19  C   UNL     1       1.074   0.599   0.000  1.00  0.00    -0.018 C 
ATOM     20  C   UNL     1       0.043   1.689   0.000  1.00  0.00     0.012 C 
ENDROOT
BRANCH   1  21
ATOM     21  C   UNL     1      -4.645   0.226   0.000  1.00  0.00    -0.028 C 
ATOM     22  C   UNL     1      -4.734   1.723   0.000  1.00  0.00     0.004 C 
ENDBRANCH   1  21
TORSDOF 1
