REMARK SMILES O=C1C=CC[C@H](C[C@H](O)/C=C/c2ccccc2)O1
REMARK SMILES IDX 8 1 7 2 6 3 2 4 3 5 18 6 4 7 5 8 1 9 9 10 10 12 11 13 12 14
REMARK SMILES IDX 13 15 17 16 14 17 16 18 15 19
REMARK H PARENT 9 11
ROOT
ATOM      1  C   UNL     1      -0.358   0.063   0.000  1.00  0.00     0.141 C 
ENDROOT
BRANCH   1   2
ATOM      2  C   UNL     1      -1.390   1.151   0.000  1.00  0.00     0.081 C 
BRANCH   2   3
ATOM      3  C   UNL     1      -2.849   0.801   0.000  1.00  0.00     0.183 C 
ATOM      4  C   UNL     1      -4.734  -0.986   0.000  1.00  0.00     0.330 C 
ATOM      5  C   UNL     1      -5.766   0.102   0.000  1.00  0.00     0.089 C 
ATOM      6  O   UNL     1      -3.275  -0.637   0.000  1.00  0.00    -0.459 OA
ATOM      7  C   UNL     1      -5.339   1.540   0.000  1.00  0.00    -0.016 C 
ATOM      8  C   UNL     1      -3.881   1.890   0.000  1.00  0.00     0.073 C 
ATOM      9  O   UNL     1      -5.160  -2.424   0.000  1.00  0.00    -0.247 OA
ENDBRANCH   2   3
ENDBRANCH   1   2
BRANCH   1  10
ATOM     10  O   UNL     1      -0.784  -1.375   0.000  1.00  0.00    -0.389 OA
ATOM     11  H   UNL     1       0.000   0.000   0.000  1.00  0.00     0.211 HD
ENDBRANCH   1  10
BRANCH   1  12
ATOM     12  C   UNL     1       1.101   0.412   0.000  1.00  0.00     0.005 C 
BRANCH  12  13
ATOM     13  C   UNL     1       2.133  -0.676   0.000  1.00  0.00     0.006 C 
BRANCH  13  14
ATOM     14  C   UNL     1       3.592  -0.327   0.000  1.00  0.00    -0.026 A 
ATOM     15  C   UNL     1       4.624  -1.415   0.000  1.00  0.00     0.008 A 
ATOM     16  C   UNL     1       4.018   1.111   0.000  1.00  0.00     0.008 A 
ATOM     17  C   UNL     1       6.082  -1.065   0.000  1.00  0.00     0.001 A 
ATOM     18  C   UNL     1       5.477   1.461   0.000  1.00  0.00     0.001 A 
ATOM     19  C   UNL     1       6.509   0.373   0.000  1.00  0.00     0.000 A 
ENDBRANCH  13  14
ENDBRANCH  12  13
ENDBRANCH   1  12
TORSDOF 6
