REMARK SMILES COc1cc(OC)c(-c2coc3cc(O[C@@H]4O[C@H](CO)[C@@H](O)[C@H](O)[C@H]4O)c(OC)c(O)c3c2=O)cc1OC
REMARK SMILES IDX 15 1 14 2 9 3 10 4 33 5 11 6 32 7 12 8 30 9 13 10 27 11
REMARK SMILES IDX 34 12 8 13 3 14 4 15 36 16 5 17 35 18 2 19 1 20 37 21 38 22
REMARK SMILES IDX 6 23 7 24 31 25 28 27 29 28 16 29 17 30 25 31 18 32 23 33
REMARK SMILES IDX 21 34 26 35 19 37 20 38 24 40 22 42
REMARK H PARENT 31 26 26 36 20 39 24 41 22 43
ROOT
ATOM      1  O   UNL     1       4.088   1.546   0.000  1.00  0.00    -0.458 OA
ENDROOT
BRANCH   1   2
ATOM      2  C   UNL     1       2.594   1.420   0.000  1.00  0.00     0.172 A 
ATOM      3  C   UNL     1      -2.528  -0.316   0.000  1.00  0.00     0.069 A 
ATOM      4  C   UNL     1      -1.672  -1.548   0.000  1.00  0.00     0.208 A 
ATOM      5  C   UNL     1      -1.890   1.041   0.000  1.00  0.00     0.204 A 
ATOM      6  O   UNL     1      -0.177  -1.421   0.000  1.00  0.00    -0.463 OA
ATOM      7  C   UNL     1      -0.396   1.167   0.000  1.00  0.00     0.111 A 
ATOM      8  C   UNL     1       0.461  -0.064   0.000  1.00  0.00     0.145 A 
ATOM      9  C   UNL     1       0.242   2.525   0.000  1.00  0.00     0.176 A 
ATOM     10  C   UNL     1       1.956   0.062   0.000  1.00  0.00     0.098 A 
ATOM     11  C   UNL     1       1.737   2.651   0.000  1.00  0.00     0.204 A 
ATOM     12  O   UNL     1      -2.747   2.272   0.000  1.00  0.00    -0.288 OA
BRANCH   3  13
ATOM     13  C   UNL     1      -4.023  -0.443   0.000  1.00  0.00     0.035 A 
ATOM     14  C   UNL     1      -7.013  -0.695   0.000  1.00  0.00     0.164 A 
ATOM     15  C   UNL     1      -6.374   0.663   0.000  1.00  0.00     0.097 A 
ATOM     16  C   UNL     1      -6.156  -1.926   0.000  1.00  0.00     0.161 A 
ATOM     17  C   UNL     1      -4.880   0.789   0.000  1.00  0.00     0.130 A 
ATOM     18  C   UNL     1      -4.661  -1.800   0.000  1.00  0.00     0.063 A 
BRANCH  14  19
ATOM     19  O   UNL     1      -8.507  -0.821   0.000  1.00  0.00    -0.493 OA
ATOM     20  C   UNL     1      -9.364   0.410   0.000  1.00  0.00     0.278 C 
ENDBRANCH  14  19
BRANCH  16  21
ATOM     21  O   UNL     1      -6.794  -3.284   0.000  1.00  0.00    -0.493 OA
ATOM     22  C   UNL     1      -5.937  -4.515   0.000  1.00  0.00     0.278 C 
ENDBRANCH  16  21
BRANCH  17  23
ATOM     23  O   UNL     1      -4.242   2.146   0.000  1.00  0.00    -0.496 OA
ATOM     24  C   UNL     1      -5.098   3.378   0.000  1.00  0.00     0.278 C 
ENDBRANCH  17  23
ENDBRANCH   3  13
BRANCH   9  25
ATOM     25  O   UNL     1      -0.614   3.756   0.000  1.00  0.00    -0.504 OA
ATOM     26  H   UNL     1       0.000   0.000   0.000  1.00  0.00     0.293 HD
ENDBRANCH   9  25
BRANCH  11  27
ATOM     27  O   UNL     1       2.375   4.008   0.000  1.00  0.00    -0.490 OA
ATOM     28  C   UNL     1       3.870   4.135   0.000  1.00  0.00     0.278 C 
ENDBRANCH  11  27
ENDBRANCH   1   2
BRANCH   1  29
ATOM     29  C   UNL     1       4.945   0.315   0.000  1.00  0.00     0.339 C 
ATOM     30  O   UNL     1       4.307  -1.043   0.000  1.00  0.00    -0.332 OA
ATOM     31  C   UNL     1       6.440   0.441   0.000  1.00  0.00     0.214 C 
ATOM     32  C   UNL     1       5.163  -2.274   0.000  1.00  0.00     0.179 C 
ATOM     33  C   UNL     1       7.296  -0.791   0.000  1.00  0.00     0.180 C 
ATOM     34  C   UNL     1       6.658  -2.148   0.000  1.00  0.00     0.177 C 
BRANCH  31  35
ATOM     35  O   UNL     1       7.078   1.798   0.000  1.00  0.00    -0.384 OA
ATOM     36  H   UNL     1       0.000   0.000   0.000  1.00  0.00     0.211 HD
ENDBRANCH  31  35
BRANCH  32  37
ATOM     37  C   UNL     1       4.526  -3.632   0.000  1.00  0.00     0.191 C 
BRANCH  37  38
ATOM     38  O   UNL     1       3.031  -3.758   0.000  1.00  0.00    -0.394 OA
ATOM     39  H   UNL     1       0.000   0.000   0.000  1.00  0.00     0.210 HD
ENDBRANCH  37  38
ENDBRANCH  32  37
BRANCH  33  40
ATOM     40  O   UNL     1       8.791  -0.664   0.000  1.00  0.00    -0.387 OA
ATOM     41  H   UNL     1       0.000   0.000   0.000  1.00  0.00     0.211 HD
ENDBRANCH  33  40
BRANCH  34  42
ATOM     42  O   UNL     1       7.515  -3.380   0.000  1.00  0.00    -0.387 OA
ATOM     43  H   UNL     1       0.000   0.000   0.000  1.00  0.00     0.211 HD
ENDBRANCH  34  42
ENDBRANCH   1  29
TORSDOF 13
