REMARK SMILES C=C1C[C@@]23CC[C@@H]4C(C)(C)CCC[C@@]4(C)[C@]2(O)[C@H](OC(C)=O)C[C@@H]1C3
REMARK SMILES IDX 1 1 2 2 3 3 4 4 5 5 6 6 7 7 8 8 9 9 10 10 11 11 12 12 13 13
REMARK SMILES IDX 14 14 15 15 16 16 18 17 23 18 24 19 25 20 17 21 19 23 20 24
REMARK SMILES IDX 21 25 22 26
REMARK H PARENT 17 22
ROOT
ATOM      1  C   UNL     1      -3.964  -3.447   0.000  1.00  0.00     0.008 C 
ATOM      2  C   UNL     1      -2.818  -2.479   0.000  1.00  0.00    -0.073 C 
ATOM      3  C   UNL     1      -1.361  -2.838   0.000  1.00  0.00     0.040 C 
ATOM      4  C   UNL     1      -0.571  -1.563   0.000  1.00  0.00     0.008 C 
ATOM      5  C   UNL     1       0.512  -2.602   0.000  1.00  0.00     0.011 C 
ATOM      6  C   UNL     1       1.952  -2.184   0.000  1.00  0.00     0.005 C 
ATOM      7  C   UNL     1       2.311  -0.728   0.000  1.00  0.00     0.004 C 
ATOM      8  C   UNL     1       3.751  -0.310   0.000  1.00  0.00    -0.032 C 
ATOM      9  C   UNL     1       5.248  -0.410   0.000  1.00  0.00     0.011 C 
ATOM     10  C   UNL     1       3.913  -1.801   0.000  1.00  0.00     0.011 C 
ATOM     11  C   UNL     1       4.110   1.147   0.000  1.00  0.00     0.007 C 
ATOM     12  C   UNL     1       3.027   2.186   0.000  1.00  0.00     0.001 C 
ATOM     13  C   UNL     1       1.587   1.768   0.000  1.00  0.00     0.010 C 
ATOM     14  C   UNL     1       1.228   0.311   0.000  1.00  0.00     0.004 C 
ATOM     15  C   UNL     1       0.146   1.350   0.000  1.00  0.00     0.015 C 
ATOM     16  C   UNL     1      -0.212  -0.107   0.000  1.00  0.00     0.113 C 
ATOM     17  C   UNL     1      -1.294   0.932   0.000  1.00  0.00     0.210 C 
ATOM     18  C   UNL     1      -2.735   0.514   0.000  1.00  0.00     0.056 C 
ATOM     19  C   UNL     1      -3.093  -0.943   0.000  1.00  0.00     0.019 C 
ATOM     20  C   UNL     1      -2.011  -1.981   0.000  1.00  0.00     0.018 C 
ENDROOT
BRANCH  16  21
ATOM     21  O   UNL     1      -1.653  -0.525   0.000  1.00  0.00    -0.385 OA
ATOM     22  H   UNL     1       0.000   0.000   0.000  1.00  0.00     0.211 HD
ENDBRANCH  16  21
BRANCH  17  23
ATOM     23  O   UNL     1      -0.936   2.389   0.000  1.00  0.00    -0.459 OA
BRANCH  23  24
ATOM     24  C   UNL     1      -2.018   3.427   0.000  1.00  0.00     0.303 C 
ATOM     25  C   UNL     1      -1.660   4.884   0.000  1.00  0.00     0.139 C 
ATOM     26  O   UNL     1      -3.459   3.009   0.000  1.00  0.00    -0.253 OA
ENDBRANCH  23  24
ENDBRANCH  17  23
TORSDOF 3
