REMARK SMILES C[C@H]1[C@H]2[C@H](C[C@H]3[C@@H]4CC=C5C[C@@H](O)CC[C@]5(C)[C@H]4CC[C@]23C)O[C@]12CC[C@@H](CO)CN2
REMARK SMILES IDX 1 1 2 2 3 3 4 4 5 5 6 6 7 7 8 8 9 9 10 10 11 11 12 12 14 13
REMARK SMILES IDX 15 14 16 15 17 16 18 17 19 18 20 19 21 20 22 21 23 22 24 23
REMARK SMILES IDX 25 24 26 25 27 26 30 27 31 28 28 30 29 31 13 33
REMARK H PARENT 31 29 29 32 13 34
ROOT
ATOM      1  C   UNL     1       3.136   2.319   0.000  1.00  0.00     0.012 C 
ATOM      2  C   UNL     1       2.884   0.840   0.000  1.00  0.00     0.039 C 
ATOM      3  C   UNL     1       1.540   0.175   0.000  1.00  0.00     0.031 C 
ATOM      4  C   UNL     1       1.758  -1.309   0.000  1.00  0.00     0.125 C 
ATOM      5  C   UNL     1       0.413  -1.975   0.000  1.00  0.00     0.037 C 
ATOM      6  C   UNL     1      -0.635  -0.902   0.000  1.00  0.00     0.002 C 
ATOM      7  C   UNL     1      -2.134  -0.964   0.000  1.00  0.00     0.000 C 
ATOM      8  C   UNL     1      -2.830  -2.292   0.000  1.00  0.00     0.031 C 
ATOM      9  C   UNL     1      -4.329  -2.354   0.000  1.00  0.00    -0.027 C 
ATOM     10  C   UNL     1      -5.131  -1.086   0.000  1.00  0.00    -0.065 C 
ATOM     11  C   UNL     1      -6.630  -1.148   0.000  1.00  0.00     0.063 C 
ATOM     12  C   UNL     1      -7.433   0.119   0.000  1.00  0.00     0.118 C 
ATOM     13  C   UNL     1      -6.736   1.448   0.000  1.00  0.00     0.033 C 
ATOM     14  C   UNL     1      -5.238   1.510   0.000  1.00  0.00     0.014 C 
ATOM     15  C   UNL     1      -4.435   0.242   0.000  1.00  0.00    -0.008 C 
ATOM     16  C   UNL     1      -3.739   1.571   0.000  1.00  0.00     0.016 C 
ATOM     17  C   UNL     1      -2.936   0.304   0.000  1.00  0.00     0.003 C 
ATOM     18  C   UNL     1      -2.240   1.632   0.000  1.00  0.00     0.005 C 
ATOM     19  C   UNL     1      -0.741   1.694   0.000  1.00  0.00     0.008 C 
ATOM     20  C   UNL     1       0.061   0.426   0.000  1.00  0.00    -0.024 C 
ATOM     21  C   UNL     1       0.892   1.675   0.000  1.00  0.00     0.012 C 
ATOM     22  O   UNL     1       3.236  -1.561   0.000  1.00  0.00    -0.357 OA
ATOM     23  C   UNL     1       3.933  -0.232   0.000  1.00  0.00     0.122 C 
ATOM     24  C   UNL     1       4.863  -1.409   0.000  1.00  0.00     0.053 C 
ATOM     25  C   UNL     1       6.347  -1.191   0.000  1.00  0.00     0.012 C 
ATOM     26  C   UNL     1       6.901   0.203   0.000  1.00  0.00     0.029 C 
ATOM     27  C   UNL     1       5.970   1.379   0.000  1.00  0.00     0.089 C 
ATOM     28  N   UNL     1       4.486   1.162   0.000  1.00  0.00    -0.289 NA
ATOM     29  H   UNL     1       0.000   0.000   0.000  1.00  0.00     0.125 HD
ENDROOT
BRANCH  26  30
ATOM     30  C   UNL     1       8.385   0.421   0.000  1.00  0.00     0.161 C 
BRANCH  30  31
ATOM     31  O   UNL     1       9.315  -0.756   0.000  1.00  0.00    -0.396 OA
ATOM     32  H   UNL     1       0.000   0.000   0.000  1.00  0.00     0.210 HD
ENDBRANCH  30  31
ENDBRANCH  26  30
BRANCH  12  33
ATOM     33  O   UNL     1      -8.931   0.058   0.000  1.00  0.00    -0.393 OA
ATOM     34  H   UNL     1       0.000   0.000   0.000  1.00  0.00     0.210 HD
ENDBRANCH  12  33
TORSDOF 3
