REMARK SMILES COc1cc2c(cc1OC)[C@@H]1C(=O)c3c(cc4c(c3O)C=CC(C)(C)O4)OC1CO2
REMARK SMILES IDX 3 1 4 2 5 3 6 4 7 5 8 6 11 7 12 8 13 9 14 10 15 11 16 12
REMARK SMILES IDX 17 13 26 14 23 15 24 16 25 17 22 18 21 19 18 20 19 21 27 22
REMARK SMILES IDX 28 23 29 24 30 25 2 26 1 27 9 28 10 29 20 30
REMARK H PARENT 20 31
ROOT
ATOM      1  C   UNL     1      -5.634   0.256   0.000  1.00  0.00     0.164 A 
ATOM      2  C   UNL     1      -5.190  -1.177   0.000  1.00  0.00     0.097 A 
ATOM      3  C   UNL     1      -3.727  -1.509   0.000  1.00  0.00     0.127 A 
ATOM      4  C   UNL     1      -2.709  -0.407   0.000  1.00  0.00     0.013 A 
ATOM      5  C   UNL     1      -3.153   1.025   0.000  1.00  0.00     0.059 A 
ATOM      6  C   UNL     1      -4.616   1.357   0.000  1.00  0.00     0.161 A 
ATOM      7  C   UNL     1      -1.246  -0.739   0.000  1.00  0.00     0.140 C 
ATOM      8  C   UNL     1      -0.227   0.362   0.000  1.00  0.00     0.181 C 
ATOM      9  O   UNL     1      -0.672   1.795   0.000  1.00  0.00    -0.293 OA
ATOM     10  C   UNL     1       1.236   0.031   0.000  1.00  0.00     0.103 A 
ATOM     11  C   UNL     1       1.680  -1.402   0.000  1.00  0.00     0.138 A 
ATOM     12  C   UNL     1       3.143  -1.733   0.000  1.00  0.00     0.094 A 
ATOM     13  C   UNL     1       4.162  -0.632   0.000  1.00  0.00     0.135 A 
ATOM     14  O   UNL     1       5.625  -0.964   0.000  1.00  0.00    -0.483 OA
ATOM     15  C   UNL     1       6.643   0.138   0.000  1.00  0.00     0.122 C 
ATOM     16  C   UNL     1       7.977   0.824   0.000  1.00  0.00     0.061 C 
ATOM     17  C   UNL     1       7.551  -1.057   0.000  1.00  0.00     0.061 C 
ATOM     18  C   UNL     1       6.199   1.570   0.000  1.00  0.00     0.021 C 
ATOM     19  C   UNL     1       4.736   1.902   0.000  1.00  0.00     0.015 C 
ATOM     20  C   UNL     1       3.717   0.800   0.000  1.00  0.00     0.059 A 
ATOM     21  C   UNL     1       2.254   1.132   0.000  1.00  0.00     0.141 A 
ATOM     22  O   UNL     1       0.662  -2.503   0.000  1.00  0.00    -0.485 OA
ATOM     23  C   UNL     1      -0.801  -2.172   0.000  1.00  0.00     0.226 C 
ATOM     24  C   UNL     1      -1.820  -3.273   0.000  1.00  0.00     0.275 C 
ATOM     25  O   UNL     1      -3.283  -2.941   0.000  1.00  0.00    -0.489 OA
ENDROOT
BRANCH   1  26
ATOM     26  O   UNL     1      -7.097   0.587   0.000  1.00  0.00    -0.493 OA
ATOM     27  C   UNL     1      -8.116  -0.514   0.000  1.00  0.00     0.278 C 
ENDBRANCH   1  26
BRANCH   6  28
ATOM     28  O   UNL     1      -5.060   2.789   0.000  1.00  0.00    -0.493 OA
ATOM     29  C   UNL     1      -4.042   3.890   0.000  1.00  0.00     0.278 C 
ENDBRANCH   6  28
BRANCH  21  30
ATOM     30  O   UNL     1       1.810   2.565   0.000  1.00  0.00    -0.506 OA
ATOM     31  H   UNL     1       0.000   0.000   0.000  1.00  0.00     0.293 HD
ENDBRANCH  21  30
TORSDOF 3
