REMARK SMILES O=C1NCCC=C1CC(=O)c1ccc(O)cc1
REMARK SMILES IDX 9 1 10 2 8 3 7 4 2 5 3 6 4 7 6 8 5 9 1 10 11 12 12 13 17 14
REMARK SMILES IDX 13 15 16 16 14 17 15 18
REMARK H PARENT 3 11 15 19
ROOT
ATOM      1  C   UNL     1       0.187  -0.358   0.000  1.00  0.00     0.167 C 
ATOM      2  O   UNL     1      -0.364  -1.754   0.000  1.00  0.00    -0.294 OA
ENDROOT
BRANCH   1   3
ATOM      3  C   UNL     1      -0.746   0.816   0.000  1.00  0.00     0.122 C 
BRANCH   3   4
ATOM      4  C   UNL     1      -2.229   0.596   0.000  1.00  0.00     0.021 C 
ATOM      5  C   UNL     1      -2.780  -0.799   0.000  1.00  0.00     0.247 C 
ATOM      6  N   UNL     1      -4.264  -1.020   0.000  1.00  0.00    -0.352 N 
ATOM      7  C   UNL     1      -5.197   0.155   0.000  1.00  0.00     0.120 C 
ATOM      8  C   UNL     1      -3.162   1.771   0.000  1.00  0.00    -0.015 C 
ATOM      9  C   UNL     1      -4.646   1.550   0.000  1.00  0.00     0.049 C 
ATOM     10  O   UNL     1      -1.848  -1.974   0.000  1.00  0.00    -0.270 OA
ATOM     11  H   UNL     1       0.000   0.000   0.000  1.00  0.00     0.163 HD
ENDBRANCH   3   4
ENDBRANCH   1   3
BRANCH   1  12
ATOM     12  C   UNL     1       1.671  -0.138   0.000  1.00  0.00     0.018 A 
ATOM     13  C   UNL     1       2.603  -1.313   0.000  1.00  0.00     0.015 A 
ATOM     14  C   UNL     1       2.222   1.257   0.000  1.00  0.00     0.015 A 
ATOM     15  C   UNL     1       4.087  -1.093   0.000  1.00  0.00     0.047 A 
ATOM     16  C   UNL     1       3.705   1.477   0.000  1.00  0.00     0.047 A 
ATOM     17  C   UNL     1       4.638   0.303   0.000  1.00  0.00     0.115 A 
BRANCH  17  18
ATOM     18  O   UNL     1       6.122   0.523   0.000  1.00  0.00    -0.508 OA
ATOM     19  H   UNL     1       0.000   0.000   0.000  1.00  0.00     0.293 HD
ENDBRANCH  17  18
ENDBRANCH   1  12
TORSDOF 4
