REMARK SMILES CC[C@H]1C[C@H]2CN3CCc4c([nH]c5ccc(OC)cc45)[C@](C(=O)OC)(C2)[C@H]13
REMARK SMILES IDX 3 1 4 2 5 3 6 4 7 5 21 6 26 7 27 8 2 9 1 10 11 11 10 12
REMARK SMILES IDX 12 13 20 14 13 15 19 16 14 17 16 18 15 19 9 21 17 23 18 24
REMARK SMILES IDX 22 25 23 26 24 27 25 28 8 29
REMARK H PARENT 12 20
REMARK Flexibility Score:   11.900
ROOT
ATOM      1  C   UNL     1      -3.942   0.680   0.000  1.00  0.00     0.008 C 
ATOM      2  C   UNL     1      -4.428  -0.739   0.000  1.00  0.00     0.010 C 
ATOM      3  C   UNL     1      -3.443  -1.869   0.000  1.00  0.00     0.005 C 
ATOM      4  C   UNL     1      -3.804  -0.413   0.000  1.00  0.00     0.088 C 
ATOM      5  N   UNL     1      -2.200   2.444   0.000  1.00  0.00    -0.298 NA
ATOM      6  C   UNL     1      -1.484  -0.163   0.000  1.00  0.00     0.124 C 
ATOM      7  C   UNL     1      -1.971  -1.581   0.000  1.00  0.00     0.031 C 
ATOM      8  C   UNL     1      -2.470   0.968   0.000  1.00  0.00     0.083 C 
ENDROOT
BRANCH   1   9
ATOM      9  C   UNL     1      -4.927   1.811   0.000  1.00  0.00     0.002 C 
ATOM     10  C   UNL     1      -6.399   1.523   0.000  1.00  0.00     0.004 C 
ENDBRANCH   1   9
BRANCH   6  11
ATOM     11  C   UNL     1       0.015  -0.097   0.000  1.00  0.00     0.038 A 
ATOM     12  C   UNL     1       0.898   1.115   0.000  1.00  0.00    -0.017 A 
ATOM     13  N   UNL     1       0.895  -1.312   0.000  1.00  0.00    -0.357 N 
ATOM     14  C   UNL     1       2.324   0.650   0.000  1.00  0.00     0.007 A 
ATOM     15  C   UNL     1       2.322  -0.850   0.000  1.00  0.00     0.046 A 
ATOM     16  C   UNL     1       3.624   1.399   0.000  1.00  0.00     0.057 A 
ATOM     17  C   UNL     1       3.620  -1.601   0.000  1.00  0.00     0.030 A 
ATOM     18  C   UNL     1       4.922   0.647   0.000  1.00  0.00     0.119 A 
ATOM     19  C   UNL     1       4.920  -0.853   0.000  1.00  0.00     0.048 A 
ATOM     20  H   UNL     1       0.000   0.000   0.000  1.00  0.00     0.166 HD
BRANCH  12  21
ATOM     21  C   UNL     1       0.500   2.562   0.000  1.00  0.00     0.053 CG0
ATOM     22  G   UNL     1      -0.878   3.153   0.000  1.00  0.00     0.000 G0
ENDBRANCH  12  21
BRANCH  18  23
ATOM     23  O   UNL     1       6.222   1.395   0.000  1.00  0.00    -0.497 OA
ATOM     24  C   UNL     1       7.520   0.644   0.000  1.00  0.00     0.278 C 
ENDBRANCH  18  23
ENDBRANCH   6  11
BRANCH   6  25
ATOM     25  C   UNL     1      -0.586  -1.364   0.000  1.00  0.00     0.319 C 
ATOM     26  O   UNL     1       0.205  -1.464   0.000  1.00  0.00    -0.251 OA
BRANCH  25  27
ATOM     27  O   UNL     1      -1.177  -2.742   0.000  1.00  0.00    -0.468 OA
ATOM     28  C   UNL     1      -0.279  -3.944   0.000  1.00  0.00     0.282 C 
ENDBRANCH  25  27
ENDBRANCH   6  25
BRANCH   5  29
ATOM     29  C   UNL     1      -0.878   3.153   0.000  1.00  0.00     0.089 CG0
ATOM     30  G   UNL     1       0.500   2.562   0.000  1.00  0.00     0.000 G0
ENDBRANCH   5  29
TORSDOF 4
