REMARK SMILES CC(C)c1cc2c(cc1O)[C@@]1(C)CCCC(C)(C)[C@@H]1CC2
REMARK SMILES IDX 4 1 5 2 6 3 7 4 8 5 9 6 11 7 12 8 13 9 14 10 15 11 16 12
REMARK SMILES IDX 17 13 18 14 19 15 20 16 21 17 2 18 1 19 3 20 10 21
REMARK H PARENT 10 22
ROOT
ATOM      1  C   UNL     1      -3.092   0.267   0.000  1.00  0.00    -0.003 A 
ATOM      2  C   UNL     1      -2.125   1.414   0.000  1.00  0.00     0.011 A 
ATOM      3  C   UNL     1      -0.648   1.150   0.000  1.00  0.00    -0.044 A 
ATOM      4  C   UNL     1      -0.138  -0.260   0.000  1.00  0.00    -0.035 A 
ATOM      5  C   UNL     1      -1.105  -1.407   0.000  1.00  0.00     0.051 A 
ATOM      6  C   UNL     1      -2.581  -1.144   0.000  1.00  0.00     0.119 A 
ATOM      7  C   UNL     1       1.339  -0.523   0.000  1.00  0.00    -0.004 C 
ATOM      8  C   UNL     1       0.372  -1.671   0.000  1.00  0.00     0.017 C 
ATOM      9  C   UNL     1       1.849  -1.934   0.000  1.00  0.00     0.012 C 
ATOM     10  C   UNL     1       3.325  -2.197   0.000  1.00  0.00     0.001 C 
ATOM     11  C   UNL     1       4.292  -1.050   0.000  1.00  0.00     0.007 C 
ATOM     12  C   UNL     1       3.782   0.360   0.000  1.00  0.00    -0.032 C 
ATOM     13  C   UNL     1       3.784   1.860   0.000  1.00  0.00     0.011 C 
ATOM     14  C   UNL     1       5.259   0.618   0.000  1.00  0.00     0.011 C 
ATOM     15  C   UNL     1       2.305   0.624   0.000  1.00  0.00     0.005 C 
ATOM     16  C   UNL     1       1.795   2.034   0.000  1.00  0.00     0.010 C 
ATOM     17  C   UNL     1       0.318   2.298   0.000  1.00  0.00     0.036 C 
ENDROOT
BRANCH   1  18
ATOM     18  C   UNL     1      -4.568   0.530   0.000  1.00  0.00     0.017 C 
ATOM     19  C   UNL     1      -5.079   1.940   0.000  1.00  0.00     0.012 C 
ATOM     20  C   UNL     1      -5.535  -0.617   0.000  1.00  0.00     0.012 C 
ENDBRANCH   1  18
BRANCH   6  21
ATOM     21  O   UNL     1      -3.548  -2.291   0.000  1.00  0.00    -0.508 OA
ATOM     22  H   UNL     1       0.000   0.000   0.000  1.00  0.00     0.293 HD
ENDBRANCH   6  21
TORSDOF 2
