REMARK SMILES C[C@H]1[C@H](C)CC[C@]2(C)CC[C@]3(C)C(=CC[C@@H]4[C@@]5(C)CCC(OC(=O)/C=C/c6ccccc6)C(C)(C)[C@@H]5CC[C@]43C)[C@H]12
REMARK SMILES IDX 23 1 24 2 22 3 21 4 2 5 3 6 41 7 5 8 13 9 7 10 6 11 11 12
REMARK SMILES IDX 14 13 9 14 10 15 39 16 15 17 38 18 16 19 37 20 17 21 36 22
REMARK SMILES IDX 19 23 33 24 20 25 1 26 4 27 8 28 12 29 40 30 18 31 34 32
REMARK SMILES IDX 35 33 25 34 26 35 27 36 28 37 32 38 29 39 31 40 30 41
REMARK H PARENT
ROOT
ATOM      1  C   UNL     1       5.304  -0.264   0.000  1.00  0.00     0.331 C 
ATOM      2  O   UNL     1       4.759  -1.661   0.000  1.00  0.00    -0.247 OA
ENDROOT
BRANCH   1   3
ATOM      3  O   UNL     1       4.367   0.907   0.000  1.00  0.00    -0.459 OA
BRANCH   3   4
ATOM      4  C   UNL     1       2.884   0.680   0.000  1.00  0.00     0.182 C 
ATOM      5  C   UNL     1      -6.558  -2.077   0.000  1.00  0.00    -0.004 C 
ATOM      6  C   UNL     1      -8.040  -2.304   0.000  1.00  0.00    -0.011 C 
ATOM      7  C   UNL     1      -6.013  -0.680   0.000  1.00  0.00     0.024 C 
ATOM      8  C   UNL     1      -8.978  -1.133   0.000  1.00  0.00     0.004 C 
ATOM      9  C   UNL     1      -4.530  -0.453   0.000  1.00  0.00    -0.064 C 
ATOM     10  C   UNL     1      -6.950   0.491   0.000  1.00  0.00    -0.026 C 
ATOM     11  C   UNL     1      -8.433   0.264   0.000  1.00  0.00     0.007 C 
ATOM     12  C   UNL     1      -3.985   0.944   0.000  1.00  0.00    -0.006 C 
ATOM     13  C   UNL     1      -3.592  -1.624   0.000  1.00  0.00    -0.027 C 
ATOM     14  C   UNL     1      -6.405   1.889   0.000  1.00  0.00     0.008 C 
ATOM     15  C   UNL     1      -4.923   2.115   0.000  1.00  0.00     0.012 C 
ATOM     16  C   UNL     1      -2.502   1.171   0.000  1.00  0.00    -0.020 C 
ATOM     17  C   UNL     1      -2.109  -1.397   0.000  1.00  0.00     0.032 C 
ATOM     18  C   UNL     1      -1.957   2.568   0.000  1.00  0.00     0.008 C 
ATOM     19  C   UNL     1      -1.564   0.000   0.000  1.00  0.00     0.006 C 
ATOM     20  C   UNL     1      -0.474   2.795   0.000  1.00  0.00     0.005 C 
ATOM     21  C   UNL     1      -0.082   0.227   0.000  1.00  0.00    -0.025 C 
ATOM     22  C   UNL     1       0.464   1.624   0.000  1.00  0.00     0.005 C 
ATOM     23  C   UNL     1       0.856  -0.944   0.000  1.00  0.00     0.011 C 
ATOM     24  C   UNL     1       1.946   1.851   0.000  1.00  0.00     0.005 C 
ATOM     25  C   UNL     1       2.339  -0.717   0.000  1.00  0.00     0.046 C 
ATOM     26  C   UNL     1      -5.620  -3.248   0.000  1.00  0.00     0.008 C 
ATOM     27  C   UNL     1      -8.586  -3.701   0.000  1.00  0.00     0.008 C 
ATOM     28  C   UNL     1      -7.888   1.662   0.000  1.00  0.00     0.012 C 
ATOM     29  C   UNL     1      -3.047  -0.226   0.000  1.00  0.00     0.017 C 
ATOM     30  C   UNL     1      -3.440   2.342   0.000  1.00  0.00     0.012 C 
ATOM     31  C   UNL     1      -0.627  -1.171   0.000  1.00  0.00     0.012 C 
ATOM     32  C   UNL     1       1.466   3.272   0.000  1.00  0.00     0.015 C 
ATOM     33  C   UNL     1       3.262   2.571   0.000  1.00  0.00     0.015 C 
ENDBRANCH   3   4
ENDBRANCH   1   3
BRANCH   1  34
ATOM     34  C   UNL     1       6.787  -0.037   0.000  1.00  0.00     0.094 C 
BRANCH  34  35
ATOM     35  C   UNL     1       7.725  -1.208   0.000  1.00  0.00     0.015 C 
BRANCH  35  36
ATOM     36  C   UNL     1       9.208  -0.981   0.000  1.00  0.00    -0.025 A 
ATOM     37  C   UNL     1      10.145  -2.152   0.000  1.00  0.00     0.008 A 
ATOM     38  C   UNL     1       9.753   0.416   0.000  1.00  0.00     0.008 A 
ATOM     39  C   UNL     1      11.628  -1.925   0.000  1.00  0.00     0.001 A 
ATOM     40  C   UNL     1      11.236   0.643   0.000  1.00  0.00     0.001 A 
ATOM     41  C   UNL     1      12.173  -0.528   0.000  1.00  0.00     0.000 A 
ENDBRANCH  35  36
ENDBRANCH  34  35
ENDBRANCH   1  34
TORSDOF 5
