REMARK SMILES CO[C@H]1CC(=O)C(C)(C)[C@@H]2C[C@@H](OC(C)=O)[C@]3(C)[C@H](CC[C@@]4(C)[C@H](c5ccoc5)OC(=O)[C@H]5O[C@@]534)[C@@]12C
REMARK SMILES IDX 3 1 4 2 5 3 6 4 7 5 8 6 9 7 10 8 11 9 12 10 17 11 18 12
REMARK SMILES IDX 19 13 20 14 21 15 22 16 23 17 24 18 30 19 31 20 32 21 33 22
REMARK SMILES IDX 34 23 35 24 36 25 37 26 2 27 1 28 13 29 14 30 15 31 16 32
REMARK SMILES IDX 25 33 29 34 26 35 28 36 27 37
REMARK H PARENT
ROOT
ATOM      1  C   UNL     1      -2.467   2.554   0.000  1.00  0.00     0.131 C 
ATOM      2  C   UNL     1      -3.929   2.889   0.000  1.00  0.00     0.108 C 
ATOM      3  C   UNL     1      -4.950   1.789   0.000  1.00  0.00     0.141 C 
ATOM      4  O   UNL     1      -6.412   2.123   0.000  1.00  0.00    -0.299 OA
ATOM      5  C   UNL     1      -4.508   0.356   0.000  1.00  0.00     0.027 C 
ATOM      6  C   UNL     1      -5.997   0.169   0.000  1.00  0.00     0.020 C 
ATOM      7  C   UNL     1      -4.583  -1.143   0.000  1.00  0.00     0.020 C 
ATOM      8  C   UNL     1      -3.046   0.022   0.000  1.00  0.00     0.014 C 
ATOM      9  C   UNL     1      -2.604  -1.412   0.000  1.00  0.00     0.051 C 
ATOM     10  C   UNL     1      -1.142  -1.746   0.000  1.00  0.00     0.186 C 
ATOM     11  C   UNL     1      -0.121  -0.646   0.000  1.00  0.00     0.041 C 
ATOM     12  C   UNL     1      -1.583  -0.312   0.000  1.00  0.00     0.019 C 
ATOM     13  C   UNL     1      -0.563   0.787   0.000  1.00  0.00     0.010 C 
ATOM     14  C   UNL     1       0.458   1.886   0.000  1.00  0.00     0.006 C 
ATOM     15  C   UNL     1       1.920   1.552   0.000  1.00  0.00     0.014 C 
ATOM     16  C   UNL     1       2.362   0.119   0.000  1.00  0.00     0.042 C 
ATOM     17  C   UNL     1       3.382   1.218   0.000  1.00  0.00     0.019 C 
ATOM     18  C   UNL     1       3.824  -0.215   0.000  1.00  0.00     0.219 C 
ATOM     19  O   UNL     1       4.266  -1.649   0.000  1.00  0.00    -0.455 OA
ATOM     20  C   UNL     1       3.245  -2.748   0.000  1.00  0.00     0.339 C 
ATOM     21  O   UNL     1       3.687  -4.182   0.000  1.00  0.00    -0.249 OA
ATOM     22  C   UNL     1       1.783  -2.414   0.000  1.00  0.00     0.262 C 
ATOM     23  O   UNL     1       0.321  -2.080   0.000  1.00  0.00    -0.352 OA
ATOM     24  C   UNL     1       1.341  -0.981   0.000  1.00  0.00     0.125 C 
ATOM     25  C   UNL     1      -2.025   1.121   0.000  1.00  0.00     0.002 C 
ATOM     26  C   UNL     1      -1.005   2.220   0.000  1.00  0.00     0.015 C 
ENDROOT
BRANCH   1  27
ATOM     27  O   UNL     1      -1.447   3.654   0.000  1.00  0.00    -0.380 OA
ATOM     28  C   UNL     1      -1.889   5.087   0.000  1.00  0.00     0.195 C 
ENDBRANCH   1  27
BRANCH  10  29
ATOM     29  O   UNL     1      -0.700  -3.179   0.000  1.00  0.00    -0.462 OA
BRANCH  29  30
ATOM     30  C   UNL     1      -1.720  -4.279   0.000  1.00  0.00     0.302 C 
ATOM     31  C   UNL     1      -1.278  -5.712   0.000  1.00  0.00     0.139 C 
ATOM     32  O   UNL     1      -3.183  -3.945   0.000  1.00  0.00    -0.253 OA
ENDBRANCH  29  30
ENDBRANCH  10  29
BRANCH  18  33
ATOM     33  C   UNL     1       4.845   0.884   0.000  1.00  0.00     0.031 A 
ATOM     34  C   UNL     1       4.555   2.356   0.000  1.00  0.00     0.202 A 
ATOM     35  C   UNL     1       6.334   0.705   0.000  1.00  0.00     0.049 A 
ATOM     36  O   UNL     1       5.865   3.086   0.000  1.00  0.00    -0.472 OA
ATOM     37  C   UNL     1       6.965   2.066   0.000  1.00  0.00     0.195 A 
ENDBRANCH  18  33
TORSDOF 4
