REMARK SMILES COC(=O)[C@@]12C[C@H]3C[C@@H]([C@@H](C)O)[C@@H]1N(CCc1c2[nH]c2ccccc12)C3
REMARK SMILES IDX 5 1 6 2 7 3 8 4 9 5 13 6 14 7 26 8 3 9 4 10 2 11 1 12 18 13
REMARK SMILES IDX 17 14 19 15 25 16 20 17 24 18 21 19 23 20 22 21 16 23 10 25
REMARK SMILES IDX 11 26 12 27 15 29
REMARK H PARENT 19 22 12 28
REMARK Flexibility Score:   11.900
ROOT
ATOM      1  C   UNL     1      -0.734  -0.431   0.000  1.00  0.00     0.124 C 
ATOM      2  C   UNL     1      -0.931  -1.918   0.000  1.00  0.00     0.032 C 
ATOM      3  C   UNL     1      -2.318  -2.491   0.000  1.00  0.00     0.005 C 
ATOM      4  C   UNL     1      -3.507  -1.577   0.000  1.00  0.00     0.013 C 
ATOM      5  C   UNL     1      -3.310  -0.090   0.000  1.00  0.00     0.037 C 
ATOM      6  C   UNL     1      -1.923   0.483   0.000  1.00  0.00     0.085 C 
ATOM      7  N   UNL     1      -1.950   1.983   0.000  1.00  0.00    -0.298 NA
ATOM      8  C   UNL     1      -2.804   0.750   0.000  1.00  0.00     0.088 C 
ENDROOT
BRANCH   1   9
ATOM      9  C   UNL     1       0.383  -1.432   0.000  1.00  0.00     0.319 C 
ATOM     10  O   UNL     1       1.178  -1.374   0.000  1.00  0.00    -0.251 OA
BRANCH   9  11
ATOM     11  O   UNL     1       0.075  -2.900   0.000  1.00  0.00    -0.468 OA
ATOM     12  C   UNL     1       1.193  -3.901   0.000  1.00  0.00     0.282 C 
ENDBRANCH   9  11
ENDBRANCH   1   9
BRANCH   1  13
ATOM     13  C   UNL     1       0.722  -0.072   0.000  1.00  0.00     0.038 A 
ATOM     14  C   UNL     1       1.349   1.291   0.000  1.00  0.00    -0.017 A 
ATOM     15  N   UNL     1       1.824  -1.089   0.000  1.00  0.00    -0.357 N 
ATOM     16  C   UNL     1       2.839   1.116   0.000  1.00  0.00     0.003 A 
ATOM     17  C   UNL     1       3.132  -0.355   0.000  1.00  0.00     0.046 A 
ATOM     18  C   UNL     1       3.966   2.106   0.000  1.00  0.00     0.010 A 
ATOM     19  C   UNL     1       4.553  -0.836   0.000  1.00  0.00     0.026 A 
ATOM     20  C   UNL     1       5.386   1.625   0.000  1.00  0.00     0.001 A 
ATOM     21  C   UNL     1       5.680   0.154   0.000  1.00  0.00     0.002 A 
ATOM     22  H   UNL     1       0.000   0.000   0.000  1.00  0.00     0.166 HD
BRANCH  14  23
ATOM     23  C   UNL     1       0.674   2.631   0.000  1.00  0.00     0.053 CG0
ATOM     24  G   UNL     1      -0.794   2.939   0.000  1.00  0.00     0.000 G0
ENDBRANCH  14  23
ENDBRANCH   1  13
BRANCH   5  25
ATOM     25  C   UNL     1      -4.499   0.825   0.000  1.00  0.00     0.116 C 
ATOM     26  C   UNL     1      -5.885   0.252   0.000  1.00  0.00     0.038 C 
BRANCH  25  27
ATOM     27  O   UNL     1      -4.301   2.312   0.000  1.00  0.00    -0.393 OA
ATOM     28  H   UNL     1       0.000   0.000   0.000  1.00  0.00     0.210 HD
ENDBRANCH  25  27
ENDBRANCH   5  25
BRANCH   7  29
ATOM     29  C   UNL     1      -0.794   2.939   0.000  1.00  0.00     0.089 CG0
ATOM     30  G   UNL     1       0.674   2.631   0.000  1.00  0.00     0.000 G0
ENDBRANCH   7  29
TORSDOF 4
