REMARK SMILES O=C(O)C1=CO[C@@H](O[C@@H]2O[C@H](CO)[C@@H](O)[C@H](O)[C@H]2O)[C@@H]2C(CO)=CC[C@H]12
REMARK SMILES IDX 8 1 7 2 4 3 5 4 26 5 6 6 25 7 20 8 24 9 21 10 2 11 1 12 3 13
REMARK SMILES IDX 22 15 23 16 9 18 10 19 18 20 11 21 16 22 14 23 19 24 12 26
REMARK SMILES IDX 13 27 17 29 15 31
REMARK H PARENT 3 14 23 17 19 25 13 28 17 30 15 32
ROOT
ATOM      1  O   UNL     1       0.546  -1.054   0.000  1.00  0.00    -0.310 OA
ENDROOT
BRANCH   1   2
ATOM      2  C   UNL     1      -0.721  -0.252   0.000  1.00  0.00     0.316 C 
ATOM      3  C   UNL     1      -3.256   1.352   0.000  1.00  0.00     0.076 C 
ATOM      4  C   UNL     1      -1.928   2.049   0.000  1.00  0.00     0.202 C 
ATOM      5  C   UNL     1      -3.317  -0.147   0.000  1.00  0.00     0.047 C 
ATOM      6  O   UNL     1      -0.661   1.246   0.000  1.00  0.00    -0.471 OA
ATOM      7  C   UNL     1      -4.472  -1.105   0.000  1.00  0.00     0.037 C 
ATOM      8  C   UNL     1      -2.050  -0.949   0.000  1.00  0.00     0.094 C 
ATOM      9  C   UNL     1      -3.918  -2.499   0.000  1.00  0.00    -0.024 C 
ATOM     10  C   UNL     1      -2.421  -2.402   0.000  1.00  0.00    -0.039 C 
BRANCH   3  11
ATOM     11  C   UNL     1      -4.524   2.154   0.000  1.00  0.00     0.335 C 
ATOM     12  O   UNL     1      -5.853   1.457   0.000  1.00  0.00    -0.247 OA
BRANCH  11  13
ATOM     13  O   UNL     1      -4.463   3.652   0.000  1.00  0.00    -0.478 OA
ATOM     14  H   UNL     1       0.000   0.000   0.000  1.00  0.00     0.297 HD
ENDBRANCH  11  13
ENDBRANCH   3  11
BRANCH  10  15
ATOM     15  C   UNL     1      -1.463  -3.557   0.000  1.00  0.00     0.187 C 
BRANCH  15  16
ATOM     16  O   UNL     1      -1.984  -4.963   0.000  1.00  0.00    -0.392 OA
ATOM     17  H   UNL     1       0.000   0.000   0.000  1.00  0.00     0.211 HD
ENDBRANCH  15  16
ENDBRANCH  10  15
ENDBRANCH   1   2
BRANCH   1  18
ATOM     18  C   UNL     1       1.875  -0.358   0.000  1.00  0.00     0.286 C 
ATOM     19  O   UNL     1       3.142  -1.160   0.000  1.00  0.00    -0.341 OA
ATOM     20  C   UNL     1       1.935   1.141   0.000  1.00  0.00     0.202 C 
ATOM     21  C   UNL     1       4.471  -0.463   0.000  1.00  0.00     0.178 C 
ATOM     22  C   UNL     1       3.264   1.838   0.000  1.00  0.00     0.179 C 
ATOM     23  C   UNL     1       4.531   1.036   0.000  1.00  0.00     0.177 C 
BRANCH  20  24
ATOM     24  O   UNL     1       0.668   1.943   0.000  1.00  0.00    -0.385 OA
ATOM     25  H   UNL     1       0.000   0.000   0.000  1.00  0.00     0.211 HD
ENDBRANCH  20  24
BRANCH  21  26
ATOM     26  C   UNL     1       5.738  -1.265   0.000  1.00  0.00     0.191 C 
BRANCH  26  27
ATOM     27  O   UNL     1       5.677  -2.764   0.000  1.00  0.00    -0.394 OA
ATOM     28  H   UNL     1       0.000   0.000   0.000  1.00  0.00     0.210 HD
ENDBRANCH  26  27
ENDBRANCH  21  26
BRANCH  22  29
ATOM     29  O   UNL     1       3.325   3.337   0.000  1.00  0.00    -0.387 OA
ATOM     30  H   UNL     1       0.000   0.000   0.000  1.00  0.00     0.211 HD
ENDBRANCH  22  29
BRANCH  23  31
ATOM     31  O   UNL     1       5.860   1.733   0.000  1.00  0.00    -0.387 OA
ATOM     32  H   UNL     1       0.000   0.000   0.000  1.00  0.00     0.211 HD
ENDBRANCH  23  31
ENDBRANCH   1  18
TORSDOF 11
