REMARK SMILES CCC[C@H]1CC=CC(=O)O1
REMARK SMILES IDX 3 1 2 2 1 3 4 4 5 5 10 6 6 7 8 8 7 9 9 10
REMARK H PARENT
ROOT
ATOM      1  C   UNL     1      -1.805  -0.738   0.000  1.00  0.00     0.045 C 
ENDROOT
BRANCH   1   2
ATOM      2  C   UNL     1      -2.991   0.180   0.000  1.00  0.00     0.000 C 
ATOM      3  C   UNL     1      -4.379  -0.388   0.000  1.00  0.00     0.004 C 
ENDBRANCH   1   2
BRANCH   1   4
ATOM      4  C   UNL     1      -0.416  -0.170   0.000  1.00  0.00     0.180 C 
ATOM      5  C   UNL     1      -0.214   1.316   0.000  1.00  0.00     0.073 C 
ATOM      6  O   UNL     1       0.769  -1.089   0.000  1.00  0.00    -0.459 OA
ATOM      7  C   UNL     1       1.174   1.884   0.000  1.00  0.00    -0.016 C 
ATOM      8  C   UNL     1       2.158  -0.521   0.000  1.00  0.00     0.330 C 
ATOM      9  C   UNL     1       2.360   0.966   0.000  1.00  0.00     0.089 C 
ATOM     10  O   UNL     1       3.344  -1.439   0.000  1.00  0.00    -0.247 OA
ENDBRANCH   1   4
TORSDOF 2
