REMARK SMILES CC[C@H](C)/C=C/C1=CC2=C(Cl)C(=O)[C@@]3(C)OC(=O)C(C(=O)[C@H](C)[C@@H](C)OC(=O)[C@H](OC)c4ccccc4)=C3C2=CO1
REMARK SMILES IDX 20 1 21 2 19 3 7 4 8 5 41 6 9 7 40 8 10 9 39 10 12 11 38 12
REMARK SMILES IDX 14 13 16 14 17 15 11 16 13 17 15 18 18 19 6 20 5 21 3 22
REMARK SMILES IDX 4 23 2 24 1 25 22 26 23 27 24 28 25 29 26 30 27 31 28 32
REMARK SMILES IDX 29 33 30 34 31 35 32 36 33 37 37 38 34 39 36 40 35 41
REMARK H PARENT
ROOT
ATOM      1  C   UNL     1       0.163   1.202   0.000  1.00  0.00     0.177 C 
ATOM      2  O   UNL     1      -0.292  -0.227   0.000  1.00  0.00    -0.293 OA
ENDROOT
BRANCH   1   3
ATOM      3  C   UNL     1      -0.847   2.311   0.000  1.00  0.00     0.111 C 
ATOM      4  C   UNL     1      -4.962  -1.510   0.000  1.00  0.00     0.126 C 
ATOM      5  C   UNL     1      -5.580  -0.143   0.000  1.00  0.00     0.057 C 
ATOM      6  O   UNL     1      -3.470  -1.658   0.000  1.00  0.00    -0.464 OA
ATOM      7  C   UNL     1      -4.705   1.076   0.000  1.00  0.00     0.011 C 
ATOM      8  C   UNL     1      -2.595  -0.439   0.000  1.00  0.00     0.204 C 
ATOM      9  C   UNL     1      -5.323   2.443   0.000  1.00  0.00     0.096 C 
ATOM     10  C   UNL     1      -3.213   0.927   0.000  1.00  0.00     0.027 C 
ATOM     11  C   UNL     1      -4.449   3.661   0.000  1.00  0.00     0.222 C 
ATOM     12  C   UNL     1      -2.338   2.146   0.000  1.00  0.00     0.032 C 
ATOM     13  C   UNL     1      -2.956   3.513   0.000  1.00  0.00     0.200 C 
ATOM     14  O   UNL     1      -1.847   4.523   0.000  1.00  0.00    -0.442 OA
ATOM     15  C   UNL     1      -0.544   3.780   0.000  1.00  0.00     0.343 C 
ATOM     16  Cl  UNL     1      -6.816   2.591   0.000  1.00  0.00    -0.080 Cl
ATOM     17  O   UNL     1      -5.066   5.028   0.000  1.00  0.00    -0.288 OA
ATOM     18  C   UNL     1      -3.428   4.937   0.000  1.00  0.00     0.071 C 
ATOM     19  O   UNL     1       0.823   4.398   0.000  1.00  0.00    -0.246 OA
BRANCH   4  20
ATOM     20  C   UNL     1      -5.837  -2.728   0.000  1.00  0.00     0.043 C 
BRANCH  20  21
ATOM     21  C   UNL     1      -5.219  -4.095   0.000  1.00  0.00    -0.020 C 
BRANCH  21  22
ATOM     22  C   UNL     1      -6.094  -5.313   0.000  1.00  0.00     0.008 C 
ATOM     23  C   UNL     1      -5.476  -6.680   0.000  1.00  0.00     0.012 C 
BRANCH  22  24
ATOM     24  C   UNL     1      -7.586  -5.165   0.000  1.00  0.00     0.004 C 
ATOM     25  C   UNL     1      -8.461  -6.384   0.000  1.00  0.00     0.004 C 
ENDBRANCH  22  24
ENDBRANCH  21  22
ENDBRANCH  20  21
ENDBRANCH   4  20
ENDBRANCH   1   3
BRANCH   1  26
ATOM     26  C   UNL     1       1.628   1.523   0.000  1.00  0.00     0.099 C 
ATOM     27  C   UNL     1       2.084   2.952   0.000  1.00  0.00     0.020 C 
BRANCH  26  28
ATOM     28  C   UNL     1       2.638   0.414   0.000  1.00  0.00     0.184 C 
ATOM     29  C   UNL     1       2.183  -1.016   0.000  1.00  0.00     0.054 C 
BRANCH  28  30
ATOM     30  O   UNL     1       4.104   0.734   0.000  1.00  0.00    -0.460 OA
BRANCH  30  31
ATOM     31  C   UNL     1       5.114  -0.375   0.000  1.00  0.00     0.340 C 
ATOM     32  O   UNL     1       4.658  -1.804   0.000  1.00  0.00    -0.249 OA
BRANCH  31  33
ATOM     33  C   UNL     1       6.579  -0.055   0.000  1.00  0.00     0.257 C 
BRANCH  33  34
ATOM     34  O   UNL     1       7.035   1.374   0.000  1.00  0.00    -0.365 OA
ATOM     35  C   UNL     1       8.500   1.695   0.000  1.00  0.00     0.196 C 
ENDBRANCH  33  34
BRANCH  33  36
ATOM     36  C   UNL     1       7.589  -1.164   0.000  1.00  0.00    -0.008 A 
ATOM     37  C   UNL     1       7.134  -2.593   0.000  1.00  0.00     0.007 A 
ATOM     38  C   UNL     1       9.055  -0.844   0.000  1.00  0.00     0.007 A 
ATOM     39  C   UNL     1       8.144  -3.702   0.000  1.00  0.00     0.000 A 
ATOM     40  C   UNL     1      10.065  -1.952   0.000  1.00  0.00     0.000 A 
ATOM     41  C   UNL     1       9.609  -3.382   0.000  1.00  0.00     0.000 A 
ENDBRANCH  33  36
ENDBRANCH  31  33
ENDBRANCH  30  31
ENDBRANCH  28  30
ENDBRANCH  26  28
ENDBRANCH   1  26
TORSDOF 12
