REMARK SMILES COc1cc(C)c2c(OC)cc(=O)oc2c1
REMARK SMILES IDX 3 1 4 2 5 3 6 4 7 5 8 6 11 7 12 8 13 9 14 10 15 11 16 12
REMARK SMILES IDX 2 13 1 14 9 15 10 16
REMARK H PARENT
ROOT
ATOM      1  C   UNL     1      -2.638  -0.488   0.000  1.00  0.00     0.122 A 
ATOM      2  C   UNL     1      -2.268   0.965   0.000  1.00  0.00     0.050 A 
ATOM      3  C   UNL     1      -0.823   1.371   0.000  1.00  0.00    -0.033 A 
ATOM      4  C   UNL     1      -0.453   2.825   0.000  1.00  0.00     0.045 C 
ATOM      5  C   UNL     1       0.250   0.323   0.000  1.00  0.00     0.063 A 
ATOM      6  C   UNL     1       1.694   0.729   0.000  1.00  0.00     0.137 A 
ATOM      7  C   UNL     1       2.768  -0.319   0.000  1.00  0.00     0.141 A 
ATOM      8  C   UNL     1       2.397  -1.772   0.000  1.00  0.00     0.339 A 
ATOM      9  O   UNL     1       3.470  -2.820   0.000  1.00  0.00    -0.246 OA
ATOM     10  O   UNL     1       0.953  -2.178   0.000  1.00  0.00    -0.422 OA
ATOM     11  C   UNL     1      -0.121  -1.130   0.000  1.00  0.00     0.146 A 
ATOM     12  C   UNL     1      -1.565  -1.536   0.000  1.00  0.00     0.094 A 
ENDROOT
BRANCH   1  13
ATOM     13  O   UNL     1      -4.082  -0.894   0.000  1.00  0.00    -0.497 OA
ATOM     14  C   UNL     1      -5.156   0.154   0.000  1.00  0.00     0.278 C 
ENDBRANCH   1  13
BRANCH   6  15
ATOM     15  O   UNL     1       2.065   2.183   0.000  1.00  0.00    -0.496 OA
ATOM     16  C   UNL     1       3.509   2.588   0.000  1.00  0.00     0.278 C 
ENDBRANCH   6  15
TORSDOF 2
