REMARK SMILES Cn1c2occc2c(=O)c2ccc3c(c21)OCO3
REMARK SMILES IDX 1 1 2 2 3 3 7 4 6 5 5 6 4 7 8 8 9 9 10 10 11 11 12 12 13 13
REMARK SMILES IDX 18 14 17 15 16 16 14 17 15 18
REMARK H PARENT
ROOT
ATOM      1  C   UNL     1      -0.056   2.718   0.000  1.00  0.00     0.153 C 
ATOM      2  N   UNL     1      -0.525   1.293   0.000  1.00  0.00    -0.311 N 
ATOM      3  C   UNL     1      -1.993   0.987   0.000  1.00  0.00     0.210 A 
ATOM      4  C   UNL     1      -2.462  -0.438   0.000  1.00  0.00     0.086 A 
ATOM      5  C   UNL     1      -3.962  -0.432   0.000  1.00  0.00     0.056 A 
ATOM      6  C   UNL     1      -4.420   0.997   0.000  1.00  0.00     0.198 A 
ATOM      7  O   UNL     1      -3.204   1.873   0.000  1.00  0.00    -0.448 OA
ATOM      8  C   UNL     1      -1.463  -1.556   0.000  1.00  0.00     0.200 A 
ATOM      9  O   UNL     1      -1.932  -2.981   0.000  1.00  0.00    -0.288 OA
ATOM     10  C   UNL     1       0.005  -1.250   0.000  1.00  0.00     0.051 A 
ATOM     11  C   UNL     1       1.005  -2.369   0.000  1.00  0.00     0.018 A 
ATOM     12  C   UNL     1       2.473  -2.063   0.000  1.00  0.00     0.051 A 
ATOM     13  C   UNL     1       2.942  -0.638   0.000  1.00  0.00     0.168 A 
ATOM     14  O   UNL     1       4.315  -0.033   0.000  1.00  0.00    -0.454 OA
ATOM     15  C   UNL     1       4.164   1.459   0.000  1.00  0.00     0.468 C 
ATOM     16  O   UNL     1       2.698   1.777   0.000  1.00  0.00    -0.451 OA
ATOM     17  C   UNL     1       1.943   0.481   0.000  1.00  0.00     0.190 A 
ATOM     18  C   UNL     1       0.474   0.175   0.000  1.00  0.00     0.101 A 
ENDROOT
TORSDOF 0
