REMARK SMILES C[C@@H]1[C@@H](c2ccc3c(c2)OCO3)c2c(ccc3c2OCO3)C(=O)[C@H]1C
REMARK SMILES IDX 1 1 2 2 3 3 13 4 14 5 15 6 16 7 17 8 18 9 19 10 20 11 21 12
REMARK SMILES IDX 22 13 23 14 24 15 25 16 4 17 5 18 9 19 6 20 8 21 7 22 10 23
REMARK SMILES IDX 12 24 11 25
REMARK H PARENT
ROOT
ATOM      1  C   UNL     1      -0.390  -3.259   0.000  1.00  0.00     0.009 C 
ATOM      2  C   UNL     1       0.722  -2.252   0.000  1.00  0.00     0.008 C 
ATOM      3  C   UNL     1       0.406  -0.786   0.000  1.00  0.00     0.058 C 
ATOM      4  C   UNL     1       1.518   0.221   0.000  1.00  0.00     0.017 A 
ATOM      5  C   UNL     1       2.946  -0.239   0.000  1.00  0.00     0.026 A 
ATOM      6  C   UNL     1       4.058   0.767   0.000  1.00  0.00     0.016 A 
ATOM      7  C   UNL     1       3.743   2.234   0.000  1.00  0.00     0.051 A 
ATOM      8  C   UNL     1       2.315   2.694   0.000  1.00  0.00     0.166 A 
ATOM      9  C   UNL     1       1.203   1.687   0.000  1.00  0.00     0.170 A 
ATOM     10  O   UNL     1      -0.098   2.434   0.000  1.00  0.00    -0.453 OA
ATOM     11  C   UNL     1       0.210   3.902   0.000  1.00  0.00     0.468 C 
ATOM     12  O   UNL     1       1.701   4.062   0.000  1.00  0.00    -0.454 OA
ATOM     13  C   UNL     1       3.262  -1.706   0.000  1.00  0.00     0.166 C 
ATOM     14  O   UNL     1       4.690  -2.165   0.000  1.00  0.00    -0.294 OA
ATOM     15  C   UNL     1       2.150  -2.712   0.000  1.00  0.00     0.062 C 
ATOM     16  C   UNL     1       2.465  -4.179   0.000  1.00  0.00     0.016 C 
ENDROOT
BRANCH   3  17
ATOM     17  C   UNL     1      -1.022  -0.326   0.000  1.00  0.00    -0.036 A 
ATOM     18  C   UNL     1      -1.337   1.140   0.000  1.00  0.00     0.008 A 
ATOM     19  C   UNL     1      -2.134  -1.333   0.000  1.00  0.00     0.055 A 
ATOM     20  C   UNL     1      -2.765   1.600   0.000  1.00  0.00     0.051 A 
ATOM     21  C   UNL     1      -3.561  -0.873   0.000  1.00  0.00     0.166 A 
ATOM     22  C   UNL     1      -3.877   0.594   0.000  1.00  0.00     0.165 A 
ATOM     23  O   UNL     1      -4.859  -1.626   0.000  1.00  0.00    -0.454 OA
ATOM     24  O   UNL     1      -5.369   0.747   0.000  1.00  0.00    -0.454 OA
ATOM     25  C   UNL     1      -5.976  -0.625   0.000  1.00  0.00     0.468 C 
ENDBRANCH   3  17
TORSDOF 1
