REMARK SMILES O=C(O[C@@H]1[C@@H](O)[C@H](O)[C@@H](CO)O[C@H]1c1c(O)cc2oc3cc(O)c(O)cc3c(=O)c2c1O)c1ccccc1
REMARK SMILES IDX 4 1 5 2 7 3 9 4 12 5 13 6 3 7 2 8 1 9 33 10 34 11 38 12
REMARK SMILES IDX 35 13 37 14 36 15 6 16 14 18 15 19 31 20 17 21 30 22 18 23
REMARK SMILES IDX 28 24 19 25 27 26 20 27 26 28 21 29 24 30 22 31 29 32 16 33
REMARK SMILES IDX 32 35 25 37 23 39 8 41 10 43 11 44
REMARK H PARENT 6 17 16 34 32 36 25 38 23 40 8 42 11 45
ROOT
ATOM      1  C   UNL     1      -2.921   0.120   0.000  1.00  0.00     0.242 C 
ATOM      2  C   UNL     1      -4.364   0.530   0.000  1.00  0.00     0.189 C 
ATOM      3  C   UNL     1      -5.440  -0.514   0.000  1.00  0.00     0.178 C 
ATOM      4  C   UNL     1      -5.074  -1.969   0.000  1.00  0.00     0.176 C 
ATOM      5  O   UNL     1      -3.631  -2.379   0.000  1.00  0.00    -0.361 OA
ATOM      6  C   UNL     1      -2.555  -1.335   0.000  1.00  0.00     0.200 C 
ENDROOT
BRANCH   1   7
ATOM      7  O   UNL     1      -1.844   1.164   0.000  1.00  0.00    -0.453 OA
BRANCH   7   8
ATOM      8  C   UNL     1      -2.210   2.619   0.000  1.00  0.00     0.338 C 
ATOM      9  O   UNL     1      -3.653   3.029   0.000  1.00  0.00    -0.246 OA
BRANCH   8  10
ATOM     10  C   UNL     1      -1.133   3.663   0.000  1.00  0.00     0.060 A 
ATOM     11  C   UNL     1       0.309   3.253   0.000  1.00  0.00     0.015 A 
ATOM     12  C   UNL     1      -1.500   5.118   0.000  1.00  0.00     0.015 A 
ATOM     13  C   UNL     1       1.386   4.297   0.000  1.00  0.00     0.001 A 
ATOM     14  C   UNL     1      -0.423   6.162   0.000  1.00  0.00     0.001 A 
ATOM     15  C   UNL     1       1.020   5.752   0.000  1.00  0.00     0.000 A 
ENDBRANCH   8  10
ENDBRANCH   7   8
ENDBRANCH   1   7
BRANCH   2  16
ATOM     16  O   UNL     1      -4.730   1.984   0.000  1.00  0.00    -0.386 OA
ATOM     17  H   UNL     1       0.000   0.000   0.000  1.00  0.00     0.211 HD
ENDBRANCH   2  16
BRANCH   6  18
ATOM     18  C   UNL     1      -1.112  -1.745   0.000  1.00  0.00     0.069 A 
ATOM     19  C   UNL     1      -0.746  -3.200   0.000  1.00  0.00     0.129 A 
ATOM     20  C   UNL     1      -0.035  -0.701   0.000  1.00  0.00     0.140 A 
ATOM     21  C   UNL     1       0.697  -3.610   0.000  1.00  0.00     0.094 A 
ATOM     22  C   UNL     1       1.408  -1.111   0.000  1.00  0.00     0.108 A 
ATOM     23  C   UNL     1       1.774  -2.566   0.000  1.00  0.00     0.146 A 
ATOM     24  C   UNL     1       2.484  -0.067   0.000  1.00  0.00     0.204 A 
ATOM     25  O   UNL     1       3.217  -2.976   0.000  1.00  0.00    -0.455 OA
ATOM     26  C   UNL     1       3.927  -0.477   0.000  1.00  0.00     0.069 A 
ATOM     27  C   UNL     1       4.293  -1.932   0.000  1.00  0.00     0.142 A 
ATOM     28  C   UNL     1       5.004   0.568   0.000  1.00  0.00     0.066 A 
ATOM     29  C   UNL     1       5.736  -2.342   0.000  1.00  0.00     0.098 A 
ATOM     30  C   UNL     1       6.447   0.157   0.000  1.00  0.00     0.158 A 
ATOM     31  C   UNL     1       6.813  -1.297   0.000  1.00  0.00     0.161 A 
ATOM     32  O   UNL     1       2.118   1.388   0.000  1.00  0.00    -0.288 OA
BRANCH  19  33
ATOM     33  O   UNL     1      -1.822  -4.244   0.000  1.00  0.00    -0.507 OA
ATOM     34  H   UNL     1       0.000   0.000   0.000  1.00  0.00     0.293 HD
ENDBRANCH  19  33
BRANCH  20  35
ATOM     35  O   UNL     1      -0.401   0.754   0.000  1.00  0.00    -0.506 OA
ATOM     36  H   UNL     1       0.000   0.000   0.000  1.00  0.00     0.293 HD
ENDBRANCH  20  35
BRANCH  30  37
ATOM     37  O   UNL     1       7.523   1.202   0.000  1.00  0.00    -0.504 OA
ATOM     38  H   UNL     1       0.000   0.000   0.000  1.00  0.00     0.293 HD
ENDBRANCH  30  37
BRANCH  31  39
ATOM     39  O   UNL     1       8.256  -1.708   0.000  1.00  0.00    -0.504 OA
ATOM     40  H   UNL     1       0.000   0.000   0.000  1.00  0.00     0.293 HD
ENDBRANCH  31  39
ENDBRANCH   6  18
BRANCH   3  41
ATOM     41  O   UNL     1      -6.883  -0.104   0.000  1.00  0.00    -0.387 OA
ATOM     42  H   UNL     1       0.000   0.000   0.000  1.00  0.00     0.211 HD
ENDBRANCH   3  41
BRANCH   4  43
ATOM     43  C   UNL     1      -6.151  -3.014   0.000  1.00  0.00     0.191 C 
BRANCH  43  44
ATOM     44  O   UNL     1      -5.785  -4.468   0.000  1.00  0.00    -0.394 OA
ATOM     45  H   UNL     1       0.000   0.000   0.000  1.00  0.00     0.210 HD
ENDBRANCH  43  44
ENDBRANCH   4  43
TORSDOF 12
