REMARK SMILES COc1cc2ccc(=O)oc2c2ccoc12
REMARK SMILES IDX 3 1 4 2 5 3 11 4 10 5 8 6 9 7 7 8 6 9 12 10 16 11 15 12
REMARK SMILES IDX 14 13 13 14 2 15 1 16
REMARK H PARENT
ROOT
ATOM      1  C   UNL     1      -1.941  -0.825   0.000  1.00  0.00     0.162 A 
ATOM      2  C   UNL     1      -0.742  -1.726   0.000  1.00  0.00     0.062 A 
ATOM      3  C   UNL     1       0.638  -1.138   0.000  1.00  0.00     0.022 A 
ATOM      4  C   UNL     1       0.819   0.351   0.000  1.00  0.00     0.149 A 
ATOM      5  O   UNL     1       2.198   0.939   0.000  1.00  0.00    -0.422 OA
ATOM      6  C   UNL     1       3.398   0.038   0.000  1.00  0.00     0.336 A 
ATOM      7  O   UNL     1       4.778   0.626   0.000  1.00  0.00    -0.246 OA
ATOM      8  C   UNL     1       3.217  -1.451   0.000  1.00  0.00     0.094 A 
ATOM      9  C   UNL     1       1.837  -2.039   0.000  1.00  0.00     0.019 A 
ATOM     10  C   UNL     1      -0.381   1.252   0.000  1.00  0.00     0.068 A 
ATOM     11  C   UNL     1      -1.761   0.664   0.000  1.00  0.00     0.179 A 
ATOM     12  O   UNL     1      -2.746   1.795   0.000  1.00  0.00    -0.460 OA
ATOM     13  C   UNL     1      -1.976   3.082   0.000  1.00  0.00     0.197 A 
ATOM     14  C   UNL     1      -0.514   2.746   0.000  1.00  0.00     0.055 A 
ENDROOT
BRANCH   1  15
ATOM     15  O   UNL     1      -3.321  -1.413   0.000  1.00  0.00    -0.493 OA
ATOM     16  C   UNL     1      -3.502  -2.902   0.000  1.00  0.00     0.278 C 
ENDBRANCH   1  15
TORSDOF 1
