REMARK SMILES C[C@@H]1[C@@H](c2ccc(O)cc2)c2cc(O)ccc2C[C@H]1C
REMARK SMILES IDX 1 1 2 2 3 3 11 4 12 5 13 6 15 7 16 8 17 9 18 10 19 11 20 12
REMARK SMILES IDX 4 13 5 14 10 15 6 16 9 17 7 18 8 19 14 21
REMARK H PARENT 8 20 14 22
ROOT
ATOM      1  C   UNL     1      -0.614   3.203   0.000  1.00  0.00     0.009 C 
ATOM      2  C   UNL     1       0.467   2.164   0.000  1.00  0.00     0.001 C 
ATOM      3  C   UNL     1       0.108   0.707   0.000  1.00  0.00     0.053 C 
ATOM      4  C   UNL     1       1.189  -0.332   0.000  1.00  0.00    -0.033 A 
ATOM      5  C   UNL     1       0.830  -1.788   0.000  1.00  0.00     0.050 A 
ATOM      6  C   UNL     1       1.911  -2.828   0.000  1.00  0.00     0.115 A 
ATOM      7  C   UNL     1       3.352  -2.411   0.000  1.00  0.00     0.046 A 
ATOM      8  C   UNL     1       3.712  -0.955   0.000  1.00  0.00     0.008 A 
ATOM      9  C   UNL     1       2.630   0.085   0.000  1.00  0.00    -0.044 A 
ATOM     10  C   UNL     1       2.990   1.541   0.000  1.00  0.00     0.039 C 
ATOM     11  C   UNL     1       1.908   2.580   0.000  1.00  0.00    -0.006 C 
ATOM     12  C   UNL     1       2.268   4.037   0.000  1.00  0.00     0.008 C 
ENDROOT
BRANCH   3  13
ATOM     13  C   UNL     1      -1.333   0.290   0.000  1.00  0.00    -0.040 A 
ATOM     14  C   UNL     1      -2.415   1.330   0.000  1.00  0.00     0.008 A 
ATOM     15  C   UNL     1      -1.693  -1.166   0.000  1.00  0.00     0.008 A 
ATOM     16  C   UNL     1      -3.856   0.913   0.000  1.00  0.00     0.046 A 
ATOM     17  C   UNL     1      -3.134  -1.583   0.000  1.00  0.00     0.046 A 
ATOM     18  C   UNL     1      -4.215  -0.543   0.000  1.00  0.00     0.115 A 
BRANCH  18  19
ATOM     19  O   UNL     1      -5.656  -0.960   0.000  1.00  0.00    -0.508 OA
ATOM     20  H   UNL     1       0.000   0.000   0.000  1.00  0.00     0.293 HD
ENDBRANCH  18  19
ENDBRANCH   3  13
BRANCH   6  21
ATOM     21  O   UNL     1       1.551  -4.284   0.000  1.00  0.00    -0.508 OA
ATOM     22  H   UNL     1       0.000   0.000   0.000  1.00  0.00     0.293 HD
ENDBRANCH   6  21
TORSDOF 3
