REMARK SMILES C=COC(=O)CCCCCCCCCCC
REMARK SMILES IDX 9 1 8 2 7 3 6 4 4 5 5 6 3 7 2 8 1 9 10 10 11 11 12 12 13 13
REMARK SMILES IDX 14 14 15 15 16 16
REMARK H PARENT
ROOT
ATOM      1  C   UNL     1      -0.319  -0.287   0.000  1.00  0.00     0.000 C 
ENDROOT
BRANCH   1   2
ATOM      2  C   UNL     1       0.965   0.487   0.000  1.00  0.00     0.001 C 
BRANCH   2   3
ATOM      3  C   UNL     1       2.278  -0.238   0.000  1.00  0.00     0.012 C 
BRANCH   3   4
ATOM      4  C   UNL     1       3.563   0.536   0.000  1.00  0.00     0.123 C 
BRANCH   4   5
ATOM      5  C   UNL     1       4.876  -0.190   0.000  1.00  0.00     0.310 C 
ATOM      6  O   UNL     1       4.904  -1.689   0.000  1.00  0.00    -0.252 OA
BRANCH   5   7
ATOM      7  O   UNL     1       6.160   0.585   0.000  1.00  0.00    -0.435 OA
BRANCH   7   8
ATOM      8  C   UNL     1       7.473  -0.141   0.000  1.00  0.00     0.191 C 
ATOM      9  C   UNL     1       8.758   0.633   0.000  1.00  0.00     0.051 C 
ENDBRANCH   7   8
ENDBRANCH   5   7
ENDBRANCH   4   5
ENDBRANCH   3   4
ENDBRANCH   2   3
ENDBRANCH   1   2
BRANCH   1  10
ATOM     10  C   UNL     1      -1.632   0.438   0.000  1.00  0.00     0.000 C 
BRANCH  10  11
ATOM     11  C   UNL     1      -2.917  -0.336   0.000  1.00  0.00     0.000 C 
BRANCH  11  12
ATOM     12  C   UNL     1      -4.230   0.389   0.000  1.00  0.00    -0.000 C 
BRANCH  12  13
ATOM     13  C   UNL     1      -5.515  -0.385   0.000  1.00  0.00    -0.000 C 
BRANCH  13  14
ATOM     14  C   UNL     1      -6.828   0.341   0.000  1.00  0.00    -0.000 C 
BRANCH  14  15
ATOM     15  C   UNL     1      -8.112  -0.434   0.000  1.00  0.00    -0.003 C 
ATOM     16  C   UNL     1      -9.425   0.292   0.000  1.00  0.00     0.004 C 
ENDBRANCH  14  15
ENDBRANCH  13  14
ENDBRANCH  12  13
ENDBRANCH  11  12
ENDBRANCH  10  11
ENDBRANCH   1  10
TORSDOF 12
