REMARK SMILES COC(=O)C1=CO[C@@H](O)[C@H]2[C@@H]1C=C[C@]2(O)CO
REMARK SMILES IDX 5 1 6 2 7 3 8 4 10 5 11 6 12 7 13 8 14 9 3 10 4 11 2 12 1 13
REMARK SMILES IDX 9 14 15 16 16 18 17 19
REMARK H PARENT 9 15 15 17 17 20
ROOT
ATOM      1  C   UNL     1       1.582   0.316   0.000  1.00  0.00     0.079 C 
ATOM      2  C   UNL     1       1.570   1.816   0.000  1.00  0.00     0.202 C 
ATOM      3  O   UNL     1       0.265   2.555   0.000  1.00  0.00    -0.472 OA
ATOM      4  C   UNL     1      -1.028   1.794   0.000  1.00  0.00     0.310 C 
ATOM      5  C   UNL     1      -1.016   0.294   0.000  1.00  0.00     0.108 C 
ATOM      6  C   UNL     1       0.289  -0.445   0.000  1.00  0.00     0.065 C 
ATOM      7  C   UNL     1      -0.010  -1.915   0.000  1.00  0.00    -0.019 C 
ATOM      8  C   UNL     1      -1.501  -2.084   0.000  1.00  0.00     0.007 C 
ATOM      9  C   UNL     1      -2.122  -0.719   0.000  1.00  0.00     0.115 C 
ENDROOT
BRANCH   1  10
ATOM     10  C   UNL     1       2.888  -0.423   0.000  1.00  0.00     0.337 C 
ATOM     11  O   UNL     1       2.900  -1.923   0.000  1.00  0.00    -0.246 OA
BRANCH  10  12
ATOM     12  O   UNL     1       4.180   0.337   0.000  1.00  0.00    -0.466 OA
ATOM     13  C   UNL     1       5.486  -0.402   0.000  1.00  0.00     0.282 C 
ENDBRANCH  10  12
ENDBRANCH   1  10
BRANCH   4  14
ATOM     14  O   UNL     1      -2.333   2.533   0.000  1.00  0.00    -0.358 OA
ATOM     15  H   UNL     1       0.000   0.000   0.000  1.00  0.00     0.215 HD
ENDBRANCH   4  14
BRANCH   9  16
ATOM     16  O   UNL     1      -3.014   0.487   0.000  1.00  0.00    -0.383 OA
ATOM     17  H   UNL     1       0.000   0.000   0.000  1.00  0.00     0.211 HD
ENDBRANCH   9  16
BRANCH   9  18
ATOM     18  C   UNL     1      -3.415  -1.480   0.000  1.00  0.00     0.196 C 
BRANCH  18  19
ATOM     19  O   UNL     1      -4.720  -0.741   0.000  1.00  0.00    -0.393 OA
ATOM     20  H   UNL     1       0.000   0.000   0.000  1.00  0.00     0.210 HD
ENDBRANCH  18  19
ENDBRANCH   9  18
TORSDOF 6
