REMARK SMILES COc1cc(O)c(C(=O)C=Cc2cc(OC)c(OC)c(OC)c2)c2c1C=CC(C)(C)O2
REMARK SMILES IDX 10 1 8 2 9 3 7 4 3 5 4 6 25 7 5 8 24 9 26 10 31 11 27 12
REMARK SMILES IDX 28 13 29 14 30 15 2 16 1 17 6 18 11 20 12 21 13 22 23 23
REMARK SMILES IDX 14 24 20 25 17 26 15 27 16 28 21 29 22 30 18 31 19 32
REMARK H PARENT 6 19
ROOT
ATOM      1  C   UNL     1      -0.444   0.355   0.000  1.00  0.00     0.053 C 
ENDROOT
BRANCH   1   2
ATOM      2  C   UNL     1       0.973   0.846   0.000  1.00  0.00     0.193 C 
ATOM      3  O   UNL     1       1.256   2.319   0.000  1.00  0.00    -0.289 OA
BRANCH   2   4
ATOM      4  C   UNL     1       2.107  -0.136   0.000  1.00  0.00     0.107 A 
ATOM      5  C   UNL     1       4.376  -2.099   0.000  1.00  0.00     0.133 A 
ATOM      6  C   UNL     1       2.958  -2.591   0.000  1.00  0.00     0.094 A 
ATOM      7  C   UNL     1       4.659  -0.626   0.000  1.00  0.00     0.060 A 
ATOM      8  C   UNL     1       1.824  -1.609   0.000  1.00  0.00     0.134 A 
ATOM      9  C   UNL     1       3.525   0.356   0.000  1.00  0.00     0.146 A 
ATOM     10  C   UNL     1       6.076  -0.135   0.000  1.00  0.00     0.015 C 
ATOM     11  O   UNL     1       3.808   1.829   0.000  1.00  0.00    -0.482 OA
ATOM     12  C   UNL     1       6.359   1.338   0.000  1.00  0.00     0.021 C 
ATOM     13  C   UNL     1       5.225   2.320   0.000  1.00  0.00     0.122 C 
ATOM     14  C   UNL     1       4.495   3.630   0.000  1.00  0.00     0.061 C 
ATOM     15  C   UNL     1       6.389   3.266   0.000  1.00  0.00     0.061 C 
BRANCH   5  16
ATOM     16  O   UNL     1       5.510  -3.081   0.000  1.00  0.00    -0.496 OA
ATOM     17  C   UNL     1       5.227  -4.554   0.000  1.00  0.00     0.278 C 
ENDBRANCH   5  16
BRANCH   8  18
ATOM     18  O   UNL     1       0.407  -2.100   0.000  1.00  0.00    -0.507 OA
ATOM     19  H   UNL     1       0.000   0.000   0.000  1.00  0.00     0.293 HD
ENDBRANCH   8  18
ENDBRANCH   2   4
ENDBRANCH   1   2
BRANCH   1  20
ATOM     20  C   UNL     1      -1.578   1.337   0.000  1.00  0.00     0.012 C 
BRANCH  20  21
ATOM     21  C   UNL     1      -2.995   0.845   0.000  1.00  0.00    -0.018 A 
ATOM     22  C   UNL     1      -4.129   1.827   0.000  1.00  0.00     0.058 A 
ATOM     23  C   UNL     1      -3.278  -0.628   0.000  1.00  0.00     0.058 A 
ATOM     24  C   UNL     1      -5.547   1.336   0.000  1.00  0.00     0.165 A 
ATOM     25  C   UNL     1      -4.696  -1.119   0.000  1.00  0.00     0.165 A 
ATOM     26  C   UNL     1      -5.830  -0.137   0.000  1.00  0.00     0.203 A 
BRANCH  24  27
ATOM     27  O   UNL     1      -6.681   2.317   0.000  1.00  0.00    -0.493 OA
ATOM     28  C   UNL     1      -6.398   3.790   0.000  1.00  0.00     0.278 C 
ENDBRANCH  24  27
BRANCH  25  29
ATOM     29  O   UNL     1      -4.979  -2.592   0.000  1.00  0.00    -0.493 OA
ATOM     30  C   UNL     1      -3.845  -3.574   0.000  1.00  0.00     0.278 C 
ENDBRANCH  25  29
BRANCH  26  31
ATOM     31  O   UNL     1      -7.247  -0.629   0.000  1.00  0.00    -0.490 OA
ATOM     32  C   UNL     1      -7.530  -2.102   0.000  1.00  0.00     0.278 C 
ENDBRANCH  26  31
ENDBRANCH  20  21
ENDBRANCH   1  20
TORSDOF 9
