REMARK SMILES CCCCCCCCCCCCCCCCCCCCCCCCCCCC(=O)O
REMARK SMILES IDX 15 1 14 2 13 3 12 4 11 5 10 6 9 7 8 8 7 9 6 10 5 11 4 12
REMARK SMILES IDX 3 13 2 14 1 15 16 16 17 17 18 18 19 19 20 20 21 21 22 22
REMARK SMILES IDX 23 23 24 24 25 25 26 26 27 27 28 28 29 29 30 30
REMARK H PARENT 30 31
ROOT
ATOM      1  C   UNL     1      -0.566  -0.420   0.000  1.00  0.00     0.000 C 
ENDROOT
BRANCH   1   2
ATOM      2  C   UNL     1      -1.859   0.341   0.000  1.00  0.00     0.000 C 
BRANCH   2   3
ATOM      3  C   UNL     1      -3.164  -0.399   0.000  1.00  0.00     0.000 C 
BRANCH   3   4
ATOM      4  C   UNL     1      -4.457   0.362   0.000  1.00  0.00     0.000 C 
BRANCH   4   5
ATOM      5  C   UNL     1      -5.762  -0.377   0.000  1.00  0.00     0.000 C 
BRANCH   5   6
ATOM      6  C   UNL     1      -7.055   0.384   0.000  1.00  0.00     0.000 C 
BRANCH   6   7
ATOM      7  C   UNL     1      -8.360  -0.355   0.000  1.00  0.00    -0.000 C 
BRANCH   7   8
ATOM      8  C   UNL     1      -9.653   0.406   0.000  1.00  0.00    -0.000 C 
BRANCH   8   9
ATOM      9  C   UNL     1     -10.958  -0.334   0.000  1.00  0.00    -0.000 C 
BRANCH   9  10
ATOM     10  C   UNL     1     -12.251   0.427   0.000  1.00  0.00    -0.000 C 
BRANCH  10  11
ATOM     11  C   UNL     1     -13.556  -0.312   0.000  1.00  0.00    -0.000 C 
BRANCH  11  12
ATOM     12  C   UNL     1     -14.849   0.449   0.000  1.00  0.00    -0.000 C 
BRANCH  12  13
ATOM     13  C   UNL     1     -16.154  -0.290   0.000  1.00  0.00    -0.000 C 
BRANCH  13  14
ATOM     14  C   UNL     1     -17.447   0.471   0.000  1.00  0.00    -0.003 C 
ATOM     15  C   UNL     1     -18.752  -0.269   0.000  1.00  0.00     0.004 C 
ENDBRANCH  13  14
ENDBRANCH  12  13
ENDBRANCH  11  12
ENDBRANCH  10  11
ENDBRANCH   9  10
ENDBRANCH   8   9
ENDBRANCH   7   8
ENDBRANCH   6   7
ENDBRANCH   5   6
ENDBRANCH   4   5
ENDBRANCH   3   4
ENDBRANCH   2   3
ENDBRANCH   1   2
BRANCH   1  16
ATOM     16  C   UNL     1       0.739   0.319   0.000  1.00  0.00     0.000 C 
BRANCH  16  17
ATOM     17  C   UNL     1       2.031  -0.442   0.000  1.00  0.00     0.000 C 
BRANCH  17  18
ATOM     18  C   UNL     1       3.337   0.297   0.000  1.00  0.00     0.000 C 
BRANCH  18  19
ATOM     19  C   UNL     1       4.630  -0.464   0.000  1.00  0.00     0.000 C 
BRANCH  19  20
ATOM     20  C   UNL     1       5.935   0.276   0.000  1.00  0.00     0.000 C 
BRANCH  20  21
ATOM     21  C   UNL     1       7.228  -0.485   0.000  1.00  0.00     0.000 C 
BRANCH  21  22
ATOM     22  C   UNL     1       8.533   0.254   0.000  1.00  0.00     0.000 C 
BRANCH  22  23
ATOM     23  C   UNL     1       9.825  -0.507   0.000  1.00  0.00     0.000 C 
BRANCH  23  24
ATOM     24  C   UNL     1      11.131   0.232   0.000  1.00  0.00     0.000 C 
BRANCH  24  25
ATOM     25  C   UNL     1      12.424  -0.529   0.000  1.00  0.00     0.001 C 
BRANCH  25  26
ATOM     26  C   UNL     1      13.729   0.210   0.000  1.00  0.00     0.012 C 
BRANCH  26  27
ATOM     27  C   UNL     1      15.021  -0.550   0.000  1.00  0.00     0.122 C 
BRANCH  27  28
ATOM     28  C   UNL     1      16.327   0.189   0.000  1.00  0.00     0.303 C 
ATOM     29  O   UNL     1      16.339   1.689   0.000  1.00  0.00    -0.252 OA
BRANCH  28  30
ATOM     30  O   UNL     1      17.619  -0.572   0.000  1.00  0.00    -0.481 OA
ATOM     31  H   UNL     1       0.000   0.000   0.000  1.00  0.00     0.296 HD
ENDBRANCH  28  30
ENDBRANCH  27  28
ENDBRANCH  26  27
ENDBRANCH  25  26
ENDBRANCH  24  25
ENDBRANCH  23  24
ENDBRANCH  22  23
ENDBRANCH  21  22
ENDBRANCH  20  21
ENDBRANCH  19  20
ENDBRANCH  18  19
ENDBRANCH  17  18
ENDBRANCH  16  17
ENDBRANCH   1  16
TORSDOF 27
