REMARK SMILES O=C(CCCCCCCCCCc1ccccc1)c1c(O)cccc1O
REMARK SMILES IDX 6 1 5 2 4 3 3 4 2 5 1 6 19 7 20 8 25 9 22 10 24 11 23 12
REMARK SMILES IDX 21 13 26 15 7 17 8 18 9 19 10 20 11 21 12 22 13 23 14 24
REMARK SMILES IDX 18 25 15 26 17 27 16 28
REMARK H PARENT 21 14 26 16
ROOT
ATOM      1  C   UNL     1      -0.464  -0.829   0.000  1.00  0.00     0.000 C 
ENDROOT
BRANCH   1   2
ATOM      2  C   UNL     1      -1.750  -0.057   0.000  1.00  0.00     0.000 C 
BRANCH   2   3
ATOM      3  C   UNL     1      -3.062  -0.784   0.000  1.00  0.00     0.008 C 
BRANCH   3   4
ATOM      4  C   UNL     1      -4.348  -0.012   0.000  1.00  0.00     0.081 C 
BRANCH   4   5
ATOM      5  C   UNL     1      -5.659  -0.739   0.000  1.00  0.00     0.170 C 
ATOM      6  O   UNL     1      -5.685  -2.239   0.000  1.00  0.00    -0.294 OA
BRANCH   5   7
ATOM      7  C   UNL     1      -6.945   0.033   0.000  1.00  0.00     0.101 A 
ATOM      8  C   UNL     1      -6.920   1.533   0.000  1.00  0.00     0.130 A 
ATOM      9  C   UNL     1      -8.257  -0.695   0.000  1.00  0.00     0.130 A 
ATOM     10  C   UNL     1      -8.206   2.305   0.000  1.00  0.00     0.047 A 
ATOM     11  C   UNL     1      -9.543   0.077   0.000  1.00  0.00     0.047 A 
ATOM     12  C   UNL     1      -9.517   1.577   0.000  1.00  0.00     0.008 A 
BRANCH   8  13
ATOM     13  O   UNL     1      -5.608   2.260   0.000  1.00  0.00    -0.507 OA
ATOM     14  H   UNL     1       0.000   0.000   0.000  1.00  0.00     0.293 HD
ENDBRANCH   8  13
BRANCH   9  15
ATOM     15  O   UNL     1      -8.283  -2.195   0.000  1.00  0.00    -0.507 OA
ATOM     16  H   UNL     1       0.000   0.000   0.000  1.00  0.00     0.293 HD
ENDBRANCH   9  15
ENDBRANCH   5   7
ENDBRANCH   4   5
ENDBRANCH   3   4
ENDBRANCH   2   3
ENDBRANCH   1   2
BRANCH   1  17
ATOM     17  C   UNL     1       0.848  -0.101   0.000  1.00  0.00     0.000 C 
BRANCH  17  18
ATOM     18  C   UNL     1       2.134  -0.873   0.000  1.00  0.00     0.000 C 
BRANCH  18  19
ATOM     19  C   UNL     1       3.446  -0.146   0.000  1.00  0.00     0.000 C 
BRANCH  19  20
ATOM     20  C   UNL     1       4.731  -0.918   0.000  1.00  0.00     0.000 C 
BRANCH  20  21
ATOM     21  C   UNL     1       6.043  -0.190   0.000  1.00  0.00     0.005 C 
BRANCH  21  22
ATOM     22  C   UNL     1       7.329  -0.963   0.000  1.00  0.00     0.035 C 
BRANCH  22  23
ATOM     23  C   UNL     1       8.641  -0.235   0.000  1.00  0.00    -0.048 A 
ATOM     24  C   UNL     1       9.927  -1.007   0.000  1.00  0.00     0.004 A 
ATOM     25  C   UNL     1       8.667   1.265   0.000  1.00  0.00     0.004 A 
ATOM     26  C   UNL     1      11.239  -0.280   0.000  1.00  0.00     0.000 A 
ATOM     27  C   UNL     1       9.978   1.992   0.000  1.00  0.00     0.000 A 
ATOM     28  C   UNL     1      11.264   1.220   0.000  1.00  0.00     0.000 A 
ENDBRANCH  22  23
ENDBRANCH  21  22
ENDBRANCH  20  21
ENDBRANCH  19  20
ENDBRANCH  18  19
ENDBRANCH  17  18
ENDBRANCH   1  17
TORSDOF 14
