REMARK SMILES CC(=O)O[C@H]1CC[C@@H](CCCCCCCCCCC(O)CO)N[C@H]1C
REMARK SMILES IDX 13 1 12 2 11 3 10 4 9 5 8 6 5 7 6 8 24 9 7 10 23 11 25 12
REMARK SMILES IDX 4 14 2 15 1 16 3 17 14 18 15 19 16 20 17 21 18 22 19 23
REMARK SMILES IDX 20 24 21 26 22 27
REMARK H PARENT 23 13 20 25 22 28
ROOT
ATOM      1  C   UNL     1       2.493   0.733   0.000  1.00  0.00     0.000 C 
ENDROOT
BRANCH   1   2
ATOM      2  C   UNL     1       1.115   0.141   0.000  1.00  0.00     0.000 C 
BRANCH   2   3
ATOM      3  C   UNL     1      -0.087   1.037   0.000  1.00  0.00     0.000 C 
BRANCH   3   4
ATOM      4  C   UNL     1      -1.465   0.445   0.000  1.00  0.00     0.002 C 
BRANCH   4   5
ATOM      5  C   UNL     1      -2.667   1.341   0.000  1.00  0.00     0.019 C 
BRANCH   5   6
ATOM      6  C   UNL     1      -4.045   0.749   0.000  1.00  0.00     0.054 C 
ATOM      7  C   UNL     1      -6.801  -0.437   0.000  1.00  0.00     0.193 C 
ATOM      8  C   UNL     1      -6.625   1.052   0.000  1.00  0.00     0.048 C 
ATOM      9  C   UNL     1      -5.599  -1.334   0.000  1.00  0.00     0.091 C 
ATOM     10  C   UNL     1      -5.247   1.645   0.000  1.00  0.00     0.023 C 
ATOM     11  N   UNL     1      -4.221  -0.741   0.000  1.00  0.00    -0.308 NA
ATOM     12  C   UNL     1      -5.774  -2.824   0.000  1.00  0.00     0.028 C 
ATOM     13  H   UNL     1       0.000   0.000   0.000  1.00  0.00     0.123 HD
BRANCH   7  14
ATOM     14  O   UNL     1      -8.179  -1.030   0.000  1.00  0.00    -0.461 OA
BRANCH  14  15
ATOM     15  C   UNL     1      -9.381  -0.133   0.000  1.00  0.00     0.302 C 
ATOM     16  C   UNL     1     -10.759  -0.726   0.000  1.00  0.00     0.139 C 
ATOM     17  O   UNL     1      -9.206   1.357   0.000  1.00  0.00    -0.253 OA
ENDBRANCH  14  15
ENDBRANCH   7  14
ENDBRANCH   5   6
ENDBRANCH   4   5
ENDBRANCH   3   4
ENDBRANCH   2   3
ENDBRANCH   1   2
BRANCH   1  18
ATOM     18  C   UNL     1       3.696  -0.164   0.000  1.00  0.00     0.000 C 
BRANCH  18  19
ATOM     19  C   UNL     1       5.073   0.429   0.000  1.00  0.00     0.000 C 
BRANCH  19  20
ATOM     20  C   UNL     1       6.276  -0.468   0.000  1.00  0.00     0.000 C 
BRANCH  20  21
ATOM     21  C   UNL     1       7.654   0.125   0.000  1.00  0.00     0.003 C 
BRANCH  21  22
ATOM     22  C   UNL     1       8.856  -0.772   0.000  1.00  0.00     0.034 C 
BRANCH  22  23
ATOM     23  C   UNL     1      10.234  -0.179   0.000  1.00  0.00     0.140 C 
BRANCH  23  24
ATOM     24  O   UNL     1      10.409   1.311   0.000  1.00  0.00    -0.391 OA
ATOM     25  H   UNL     1       0.000   0.000   0.000  1.00  0.00     0.211 HD
ENDBRANCH  23  24
BRANCH  23  26
ATOM     26  C   UNL     1      11.436  -1.076   0.000  1.00  0.00     0.187 C 
BRANCH  26  27
ATOM     27  O   UNL     1      12.814  -0.483   0.000  1.00  0.00    -0.394 OA
ATOM     28  H   UNL     1       0.000   0.000   0.000  1.00  0.00     0.210 HD
ENDBRANCH  26  27
ENDBRANCH  23  26
ENDBRANCH  22  23
ENDBRANCH  21  22
ENDBRANCH  20  21
ENDBRANCH  19  20
ENDBRANCH  18  19
ENDBRANCH   1  18
TORSDOF 16
