REMARK SMILES CC(C)(O)CC[C@@H](O)[C@](C)(O)[C@H]1CC[C@@]2(O)C3=CC(=O)[C@]4(O)C[C@@H](O)[C@@H](O)C[C@]4(C)C3CC[C@]12C
REMARK SMILES IDX 6 1 5 2 2 3 1 4 3 5 4 6 7 8 8 9 9 11 10 12 11 13 12 15 13 16
REMARK SMILES IDX 34 17 14 18 33 19 15 20 32 21 17 22 31 23 18 24 29 25 19 26
REMARK SMILES IDX 28 27 21 28 26 29 23 30 24 31 35 32 30 33 20 34 16 35 22 37
REMARK SMILES IDX 27 39 25 41
REMARK H PARENT 4 7 8 10 11 14 16 36 22 38 27 40 25 42
ROOT
ATOM      1  C   UNL     1       4.505  -0.606   0.000  1.00  0.00     0.038 C 
ENDROOT
BRANCH   1   2
ATOM      2  C   UNL     1       4.107  -2.052   0.000  1.00  0.00     0.037 C 
BRANCH   2   3
ATOM      3  C   UNL     1       5.160  -3.120   0.000  1.00  0.00     0.059 C 
ATOM      4  C   UNL     1       6.228  -2.067   0.000  1.00  0.00     0.042 C 
ATOM      5  C   UNL     1       4.092  -4.174   0.000  1.00  0.00     0.042 C 
BRANCH   3   6
ATOM      6  O   UNL     1       6.213  -4.189   0.000  1.00  0.00    -0.390 OA
ATOM      7  H   UNL     1       0.000   0.000   0.000  1.00  0.00     0.211 HD
ENDBRANCH   3   6
ENDBRANCH   2   3
ENDBRANCH   1   2
BRANCH   1   8
ATOM      8  C   UNL     1       3.452   0.462   0.000  1.00  0.00     0.146 C 
BRANCH   8   9
ATOM      9  O   UNL     1       2.000   0.084   0.000  1.00  0.00    -0.390 OA
ATOM     10  H   UNL     1       0.000   0.000   0.000  1.00  0.00     0.211 HD
ENDBRANCH   8   9
BRANCH   8  11
ATOM     11  C   UNL     1       3.850   1.908   0.000  1.00  0.00     0.091 C 
ATOM     12  C   UNL     1       5.296   1.510   0.000  1.00  0.00     0.045 C 
BRANCH  11  13
ATOM     13  O   UNL     1       4.249   3.354   0.000  1.00  0.00    -0.387 OA
ATOM     14  H   UNL     1       0.000   0.000   0.000  1.00  0.00     0.211 HD
ENDBRANCH  11  13
BRANCH  11  15
ATOM     15  C   UNL     1       2.404   2.306   0.000  1.00  0.00     0.032 C 
ATOM     16  C   UNL     1       1.877   3.711   0.000  1.00  0.00     0.010 C 
ATOM     17  C   UNL     1       1.232   1.371   0.000  1.00  0.00     0.006 C 
ATOM     18  C   UNL     1       0.378   3.643   0.000  1.00  0.00     0.041 C 
ATOM     19  C   UNL     1       1.143  -0.127   0.000  1.00  0.00     0.011 C 
ATOM     20  C   UNL     1      -0.020   2.196   0.000  1.00  0.00     0.092 C 
ATOM     21  C   UNL     1      -0.198  -0.798   0.000  1.00  0.00     0.009 C 
ATOM     22  C   UNL     1      -1.362   1.525   0.000  1.00  0.00    -0.031 C 
ATOM     23  C   UNL     1      -1.451   0.028   0.000  1.00  0.00     0.027 C 
ATOM     24  C   UNL     1      -2.614   2.351   0.000  1.00  0.00     0.053 C 
ATOM     25  C   UNL     1      -2.792  -0.644   0.000  1.00  0.00     0.013 C 
ATOM     26  C   UNL     1      -3.955   1.679   0.000  1.00  0.00     0.187 C 
ATOM     27  C   UNL     1      -2.881  -2.141   0.000  1.00  0.00     0.045 C 
ATOM     28  C   UNL     1      -4.044   0.182   0.000  1.00  0.00     0.135 C 
ATOM     29  C   UNL     1      -4.222  -2.813   0.000  1.00  0.00     0.143 C 
ATOM     30  C   UNL     1      -5.385  -0.490   0.000  1.00  0.00     0.078 C 
ATOM     31  C   UNL     1      -5.474  -1.987   0.000  1.00  0.00     0.146 C 
ATOM     32  C   UNL     1       2.564   0.680   0.000  1.00  0.00     0.015 C 
ATOM     33  C   UNL     1      -1.540  -1.470   0.000  1.00  0.00     0.016 C 
ATOM     34  O   UNL     1      -5.207   2.505   0.000  1.00  0.00    -0.292 OA
BRANCH  20  35
ATOM     35  O   UNL     1      -1.179   3.149   0.000  1.00  0.00    -0.385 OA
ATOM     36  H   UNL     1       0.000   0.000   0.000  1.00  0.00     0.211 HD
ENDBRANCH  20  35
BRANCH  28  37
ATOM     37  O   UNL     1      -5.296   1.008   0.000  1.00  0.00    -0.381 OA
ATOM     38  H   UNL     1       0.000   0.000   0.000  1.00  0.00     0.212 HD
ENDBRANCH  28  37
BRANCH  29  39
ATOM     39  O   UNL     1      -4.311  -4.310   0.000  1.00  0.00    -0.390 OA
ATOM     40  H   UNL     1       0.000   0.000   0.000  1.00  0.00     0.211 HD
ENDBRANCH  29  39
BRANCH  31  41
ATOM     41  O   UNL     1      -6.816  -2.659   0.000  1.00  0.00    -0.390 OA
ATOM     42  H   UNL     1       0.000   0.000   0.000  1.00  0.00     0.211 HD
ENDBRANCH  31  41
ENDBRANCH  11  15
ENDBRANCH   8  11
ENDBRANCH   1   8
TORSDOF 12
