REMARK SMILES CCCCCCCCCCCCCCCCCC(=O)OCCc1ccc(OCCCCC)cc1
REMARK SMILES IDX 14 1 13 2 12 3 11 4 10 5 9 6 8 7 7 8 6 9 5 10 4 11 3 12 2 13
REMARK SMILES IDX 1 14 15 15 16 16 17 17 18 18 19 19 20 20 21 21 22 22 23 23
REMARK SMILES IDX 24 24 34 25 25 26 33 27 26 28 27 29 28 30 29 31 30 32 31 33
REMARK SMILES IDX 32 34
REMARK H PARENT
ROOT
ATOM      1  C   UNL     1      -2.915  -0.076   0.000  1.00  0.00     0.000 C 
ENDROOT
BRANCH   1   2
ATOM      2  C   UNL     1      -4.260  -0.740   0.000  1.00  0.00     0.000 C 
BRANCH   2   3
ATOM      3  C   UNL     1      -5.507   0.092   0.000  1.00  0.00     0.000 C 
BRANCH   3   4
ATOM      4  C   UNL     1      -6.852  -0.572   0.000  1.00  0.00     0.000 C 
BRANCH   4   5
ATOM      5  C   UNL     1      -8.100   0.261   0.000  1.00  0.00     0.000 C 
BRANCH   5   6
ATOM      6  C   UNL     1      -9.445  -0.404   0.000  1.00  0.00     0.000 C 
BRANCH   6   7
ATOM      7  C   UNL     1     -10.693   0.429   0.000  1.00  0.00    -0.000 C 
BRANCH   7   8
ATOM      8  C   UNL     1     -12.037  -0.235   0.000  1.00  0.00    -0.000 C 
BRANCH   8   9
ATOM      9  C   UNL     1     -13.285   0.597   0.000  1.00  0.00    -0.000 C 
BRANCH   9  10
ATOM     10  C   UNL     1     -14.630  -0.067   0.000  1.00  0.00    -0.000 C 
BRANCH  10  11
ATOM     11  C   UNL     1     -15.878   0.766   0.000  1.00  0.00    -0.000 C 
BRANCH  11  12
ATOM     12  C   UNL     1     -17.223   0.101   0.000  1.00  0.00    -0.000 C 
BRANCH  12  13
ATOM     13  C   UNL     1     -18.471   0.934   0.000  1.00  0.00    -0.003 C 
ATOM     14  C   UNL     1     -19.815   0.270   0.000  1.00  0.00     0.004 C 
ENDBRANCH  12  13
ENDBRANCH  11  12
ENDBRANCH  10  11
ENDBRANCH   9  10
ENDBRANCH   8   9
ENDBRANCH   7   8
ENDBRANCH   6   7
ENDBRANCH   5   6
ENDBRANCH   4   5
ENDBRANCH   3   4
ENDBRANCH   2   3
ENDBRANCH   1   2
BRANCH   1  15
ATOM     15  C   UNL     1      -1.667  -0.909   0.000  1.00  0.00     0.001 C 
BRANCH  15  16
ATOM     16  C   UNL     1      -0.322  -0.244   0.000  1.00  0.00     0.012 C 
BRANCH  16  17
ATOM     17  C   UNL     1       0.926  -1.077   0.000  1.00  0.00     0.123 C 
BRANCH  17  18
ATOM     18  C   UNL     1       2.271  -0.413   0.000  1.00  0.00     0.305 C 
ATOM     19  O   UNL     1       2.368   1.084   0.000  1.00  0.00    -0.252 OA
BRANCH  18  20
ATOM     20  O   UNL     1       3.518  -1.245   0.000  1.00  0.00    -0.465 OA
BRANCH  20  21
ATOM     21  C   UNL     1       4.863  -0.581   0.000  1.00  0.00     0.237 C 
BRANCH  21  22
ATOM     22  C   UNL     1       6.111  -1.414   0.000  1.00  0.00     0.077 C 
BRANCH  22  23
ATOM     23  C   UNL     1       7.456  -0.749   0.000  1.00  0.00    -0.044 A 
ATOM     24  C   UNL     1       7.553   0.748   0.000  1.00  0.00     0.007 A 
ATOM     25  C   UNL     1       8.703  -1.582   0.000  1.00  0.00     0.007 A 
ATOM     26  C   UNL     1       8.898   1.412   0.000  1.00  0.00     0.047 A 
ATOM     27  C   UNL     1      10.048  -0.918   0.000  1.00  0.00     0.047 A 
ATOM     28  C   UNL     1      10.146   0.579   0.000  1.00  0.00     0.119 A 
BRANCH  28  29
ATOM     29  O   UNL     1      11.490   1.243   0.000  1.00  0.00    -0.494 OA
BRANCH  29  30
ATOM     30  C   UNL     1      12.738   0.411   0.000  1.00  0.00     0.229 C 
BRANCH  30  31
ATOM     31  C   UNL     1      14.083   1.075   0.000  1.00  0.00     0.042 C 
BRANCH  31  32
ATOM     32  C   UNL     1      15.331   0.242   0.000  1.00  0.00     0.003 C 
BRANCH  32  33
ATOM     33  C   UNL     1      16.676   0.907   0.000  1.00  0.00    -0.003 C 
ATOM     34  C   UNL     1      17.923   0.074   0.000  1.00  0.00     0.004 C 
ENDBRANCH  32  33
ENDBRANCH  31  32
ENDBRANCH  30  31
ENDBRANCH  29  30
ENDBRANCH  28  29
ENDBRANCH  22  23
ENDBRANCH  21  22
ENDBRANCH  20  21
ENDBRANCH  18  20
ENDBRANCH  17  18
ENDBRANCH  16  17
ENDBRANCH  15  16
ENDBRANCH   1  15
TORSDOF 25
