REMARK SMILES CC1=CC[C@@]23[C@@H]([C@@H]12)[C@H](C(C)C)CC[C@H]3C
REMARK SMILES IDX 1 1 2 2 3 3 4 4 5 5 6 6 7 7 8 8 12 9 13 10 14 11 15 12 9 13
REMARK SMILES IDX 10 14 11 15
REMARK H PARENT
ROOT
ATOM      1  C   UNL     1       3.038  -2.859   0.000  1.00  0.00     0.039 C 
ATOM      2  C   UNL     1       2.427  -1.489   0.000  1.00  0.00    -0.073 C 
ATOM      3  C   UNL     1       3.175  -0.189   0.000  1.00  0.00    -0.027 C 
ATOM      4  C   UNL     1       2.170   0.924   0.000  1.00  0.00     0.035 C 
ATOM      5  C   UNL     1       0.800   0.312   0.000  1.00  0.00    -0.013 C 
ATOM      6  C   UNL     1      -0.412  -0.571   0.000  1.00  0.00     0.007 C 
ATOM      7  C   UNL     1       0.959  -1.179   0.000  1.00  0.00     0.025 C 
ATOM      8  C   UNL     1      -1.783   0.038   0.000  1.00  0.00    -0.004 C 
ATOM      9  C   UNL     1      -1.942   1.529   0.000  1.00  0.00     0.004 C 
ATOM     10  C   UNL     1      -0.729   2.412   0.000  1.00  0.00     0.004 C 
ATOM     11  C   UNL     1       0.642   1.804   0.000  1.00  0.00    -0.007 C 
ATOM     12  C   UNL     1       1.854   2.687   0.000  1.00  0.00     0.008 C 
ENDROOT
BRANCH   8  13
ATOM     13  C   UNL     1      -2.996  -0.845   0.000  1.00  0.00    -0.014 C 
ATOM     14  C   UNL     1      -4.367  -0.237   0.000  1.00  0.00     0.007 C 
ATOM     15  C   UNL     1      -2.837  -2.337   0.000  1.00  0.00     0.007 C 
ENDBRANCH   8  13
TORSDOF 1
