REMARK SMILES COc1ccc(C[C@@H](COC(C)=O)[C@H](COC(C)=O)Cc2ccc(OC)c(OC)c2)cc1OC
REMARK SMILES IDX 8 1 7 2 6 3 3 4 4 5 32 6 5 7 31 8 2 9 1 10 33 11 34 12 9 13
REMARK SMILES IDX 10 14 11 15 12 16 13 17 14 18 15 19 16 20 17 21 18 22 19 23
REMARK SMILES IDX 20 24 21 25 22 26 30 27 23 28 27 29 24 30 28 31 29 32 25 33
REMARK SMILES IDX 26 34
REMARK H PARENT
ROOT
ATOM      1  C   UNL     1      -1.089   0.137   0.000  1.00  0.00     0.038 C 
ENDROOT
BRANCH   1   2
ATOM      2  C   UNL     1      -1.903   1.396   0.000  1.00  0.00     0.043 C 
BRANCH   2   3
ATOM      3  C   UNL     1      -3.401   1.321   0.000  1.00  0.00    -0.044 A 
ATOM      4  C   UNL     1      -6.398   1.171   0.000  1.00  0.00     0.160 A 
ATOM      5  C   UNL     1      -5.714   2.506   0.000  1.00  0.00     0.051 A 
ATOM      6  C   UNL     1      -5.583  -0.089   0.000  1.00  0.00     0.160 A 
ATOM      7  C   UNL     1      -4.216   2.581   0.000  1.00  0.00     0.008 A 
ATOM      8  C   UNL     1      -4.085  -0.014   0.000  1.00  0.00     0.054 A 
BRANCH   4   9
ATOM      9  O   UNL     1      -7.896   1.096   0.000  1.00  0.00    -0.493 OA
ATOM     10  C   UNL     1      -8.710   2.356   0.000  1.00  0.00     0.278 C 
ENDBRANCH   4   9
BRANCH   6  11
ATOM     11  O   UNL     1      -6.267  -1.424   0.000  1.00  0.00    -0.493 OA
ATOM     12  C   UNL     1      -5.453  -2.684   0.000  1.00  0.00     0.278 C 
ENDBRANCH   6  11
ENDBRANCH   2   3
ENDBRANCH   1   2
BRANCH   1  13
ATOM     13  C   UNL     1      -1.773  -1.198   0.000  1.00  0.00     0.237 C 
BRANCH  13  14
ATOM     14  O   UNL     1      -0.959  -2.458   0.000  1.00  0.00    -0.466 OA
BRANCH  14  15
ATOM     15  C   UNL     1      -1.643  -3.793   0.000  1.00  0.00     0.302 C 
ATOM     16  C   UNL     1      -0.829  -5.053   0.000  1.00  0.00     0.139 C 
ATOM     17  O   UNL     1      -3.141  -3.868   0.000  1.00  0.00    -0.253 OA
ENDBRANCH  14  15
ENDBRANCH  13  14
ENDBRANCH   1  13
BRANCH   1  18
ATOM     18  C   UNL     1       0.409   0.212   0.000  1.00  0.00     0.038 C 
BRANCH  18  19
ATOM     19  C   UNL     1       1.093   1.547   0.000  1.00  0.00     0.237 C 
BRANCH  19  20
ATOM     20  O   UNL     1       2.591   1.622   0.000  1.00  0.00    -0.466 OA
BRANCH  20  21
ATOM     21  C   UNL     1       3.275   2.957   0.000  1.00  0.00     0.302 C 
ATOM     22  C   UNL     1       4.773   3.032   0.000  1.00  0.00     0.139 C 
ATOM     23  O   UNL     1       2.461   4.217   0.000  1.00  0.00    -0.253 OA
ENDBRANCH  20  21
ENDBRANCH  19  20
ENDBRANCH  18  19
BRANCH  18  24
ATOM     24  C   UNL     1       1.223  -1.048   0.000  1.00  0.00     0.043 C 
BRANCH  24  25
ATOM     25  C   UNL     1       2.721  -0.973   0.000  1.00  0.00    -0.044 A 
ATOM     26  C   UNL     1       3.535  -2.233   0.000  1.00  0.00     0.008 A 
ATOM     27  C   UNL     1       3.405   0.362   0.000  1.00  0.00     0.054 A 
ATOM     28  C   UNL     1       5.034  -2.157   0.000  1.00  0.00     0.051 A 
ATOM     29  C   UNL     1       4.903   0.437   0.000  1.00  0.00     0.160 A 
ATOM     30  C   UNL     1       5.718  -0.822   0.000  1.00  0.00     0.160 A 
BRANCH  29  31
ATOM     31  O   UNL     1       5.587   1.772   0.000  1.00  0.00    -0.493 OA
ATOM     32  C   UNL     1       7.085   1.848   0.000  1.00  0.00     0.278 C 
ENDBRANCH  29  31
BRANCH  30  33
ATOM     33  O   UNL     1       7.216  -0.747   0.000  1.00  0.00    -0.493 OA
ATOM     34  C   UNL     1       8.030  -2.007   0.000  1.00  0.00     0.278 C 
ENDBRANCH  30  33
ENDBRANCH  24  25
ENDBRANCH  18  24
ENDBRANCH   1  18
TORSDOF 15
