REMARK SMILES COc1cc(-c2cc(=O)c3c(O)cc(O)cc3o2)cc(OC)c1O
REMARK SMILES IDX 6 1 7 2 8 3 9 4 10 5 11 6 13 7 14 8 16 9 17 10 18 11 5 12
REMARK SMILES IDX 3 13 4 14 23 15 20 16 19 17 2 18 1 19 24 20 21 22 22 23
REMARK SMILES IDX 12 24 15 26
REMARK H PARENT 24 21 12 25 15 27
ROOT
ATOM      1  C   UNL     1       0.083  -0.338   0.000  1.00  0.00     0.138 A 
ATOM      2  C   UNL     1       0.663  -1.721   0.000  1.00  0.00     0.100 A 
ATOM      3  C   UNL     1       2.151  -1.911   0.000  1.00  0.00     0.197 A 
ATOM      4  O   UNL     1       2.730  -3.295   0.000  1.00  0.00    -0.289 OA
ATOM      5  C   UNL     1       3.059  -0.717   0.000  1.00  0.00     0.107 A 
ATOM      6  C   UNL     1       4.547  -0.907   0.000  1.00  0.00     0.134 A 
ATOM      7  C   UNL     1       5.455   0.287   0.000  1.00  0.00     0.093 A 
ATOM      8  C   UNL     1       4.875   1.670   0.000  1.00  0.00     0.123 A 
ATOM      9  C   UNL     1       3.387   1.860   0.000  1.00  0.00     0.094 A 
ATOM     10  C   UNL     1       2.479   0.666   0.000  1.00  0.00     0.146 A 
ATOM     11  O   UNL     1       0.991   0.856   0.000  1.00  0.00    -0.456 OA
ENDROOT
BRANCH   1  12
ATOM     12  C   UNL     1      -1.405  -0.148   0.000  1.00  0.00     0.025 A 
ATOM     13  C   UNL     1      -3.473   1.425   0.000  1.00  0.00     0.165 A 
ATOM     14  C   UNL     1      -1.985   1.235   0.000  1.00  0.00     0.062 A 
ATOM     15  C   UNL     1      -4.381   0.231   0.000  1.00  0.00     0.200 A 
ATOM     16  C   UNL     1      -3.801  -1.152   0.000  1.00  0.00     0.165 A 
ATOM     17  C   UNL     1      -2.313  -1.342   0.000  1.00  0.00     0.062 A 
BRANCH  13  18
ATOM     18  O   UNL     1      -4.052   2.808   0.000  1.00  0.00    -0.493 OA
ATOM     19  C   UNL     1      -3.144   4.002   0.000  1.00  0.00     0.278 C 
ENDBRANCH  13  18
BRANCH  15  20
ATOM     20  O   UNL     1      -5.869   0.421   0.000  1.00  0.00    -0.502 OA
ATOM     21  H   UNL     1       0.000   0.000   0.000  1.00  0.00     0.293 HD
ENDBRANCH  15  20
BRANCH  16  22
ATOM     22  O   UNL     1      -4.710  -2.346   0.000  1.00  0.00    -0.493 OA
ATOM     23  C   UNL     1      -6.197  -2.156   0.000  1.00  0.00     0.278 C 
ENDBRANCH  16  22
ENDBRANCH   1  12
BRANCH   6  24
ATOM     24  O   UNL     1       5.127  -2.290   0.000  1.00  0.00    -0.507 OA
ATOM     25  H   UNL     1       0.000   0.000   0.000  1.00  0.00     0.293 HD
ENDBRANCH   6  24
BRANCH   8  26
ATOM     26  O   UNL     1       5.784   2.864   0.000  1.00  0.00    -0.508 OA
ATOM     27  H   UNL     1       0.000   0.000   0.000  1.00  0.00     0.293 HD
ENDBRANCH   8  26
TORSDOF 6
