REMARK SMILES CC(O)CCCCCCCCCCCC[C@H]1CC[C@@H](O)[C@@H](C)N1
REMARK SMILES IDX 9 1 8 2 7 3 6 4 5 5 4 6 2 7 1 8 3 9 10 11 11 12 12 13 13 14
REMARK SMILES IDX 14 15 15 16 16 17 17 18 23 19 18 20 21 21 19 22 22 24 20 25
REMARK H PARENT 3 10 23 23 20 26
ROOT
ATOM      1  C   UNL     1      -3.148  -0.455   0.000  1.00  0.00     0.000 C 
ENDROOT
BRANCH   1   2
ATOM      2  C   UNL     1      -4.389   0.388   0.000  1.00  0.00     0.000 C 
BRANCH   2   3
ATOM      3  C   UNL     1      -5.739  -0.265   0.000  1.00  0.00     0.000 C 
BRANCH   3   4
ATOM      4  C   UNL     1      -6.980   0.579   0.000  1.00  0.00     0.000 C 
BRANCH   4   5
ATOM      5  C   UNL     1      -8.330  -0.074   0.000  1.00  0.00     0.003 C 
BRANCH   5   6
ATOM      6  C   UNL     1      -9.571   0.769   0.000  1.00  0.00     0.031 C 
BRANCH   6   7
ATOM      7  C   UNL     1     -10.921   0.117   0.000  1.00  0.00     0.111 C 
ATOM      8  C   UNL     1     -12.162   0.960   0.000  1.00  0.00     0.038 C 
BRANCH   7   9
ATOM      9  O   UNL     1     -11.031  -1.379   0.000  1.00  0.00    -0.393 OA
ATOM     10  H   UNL     1       0.000   0.000   0.000  1.00  0.00     0.210 HD
ENDBRANCH   7   9
ENDBRANCH   6   7
ENDBRANCH   5   6
ENDBRANCH   4   5
ENDBRANCH   3   4
ENDBRANCH   2   3
ENDBRANCH   1   2
BRANCH   1  11
ATOM     11  C   UNL     1      -1.798   0.198   0.000  1.00  0.00     0.000 C 
BRANCH  11  12
ATOM     12  C   UNL     1      -0.557  -0.646   0.000  1.00  0.00     0.000 C 
BRANCH  12  13
ATOM     13  C   UNL     1       0.793   0.007   0.000  1.00  0.00     0.000 C 
BRANCH  13  14
ATOM     14  C   UNL     1       2.034  -0.836   0.000  1.00  0.00     0.000 C 
BRANCH  14  15
ATOM     15  C   UNL     1       3.385  -0.183   0.000  1.00  0.00     0.002 C 
BRANCH  15  16
ATOM     16  C   UNL     1       4.625  -1.027   0.000  1.00  0.00     0.019 C 
BRANCH  16  17
ATOM     17  C   UNL     1       5.976  -0.374   0.000  1.00  0.00     0.054 C 
ATOM     18  C   UNL     1       6.085   1.122   0.000  1.00  0.00     0.021 C 
ATOM     19  N   UNL     1       7.216  -1.217   0.000  1.00  0.00    -0.309 NA
ATOM     20  C   UNL     1       7.436   1.775   0.000  1.00  0.00     0.035 C 
ATOM     21  C   UNL     1       8.567  -0.565   0.000  1.00  0.00     0.079 C 
ATOM     22  C   UNL     1       8.677   0.931   0.000  1.00  0.00     0.131 C 
ATOM     23  H   UNL     1       0.000   0.000   0.000  1.00  0.00     0.123 HD
ATOM     24  C   UNL     1       9.807  -1.408   0.000  1.00  0.00     0.027 C 
BRANCH  22  25
ATOM     25  O   UNL     1      10.027   1.584   0.000  1.00  0.00    -0.392 OA
ATOM     26  H   UNL     1       0.000   0.000   0.000  1.00  0.00     0.211 HD
ENDBRANCH  22  25
ENDBRANCH  16  17
ENDBRANCH  15  16
ENDBRANCH  14  15
ENDBRANCH  13  14
ENDBRANCH  12  13
ENDBRANCH  11  12
ENDBRANCH   1  11
TORSDOF 15
