REMARK SMILES CC1(C)CC[C@]2(C(=O)O)CC[C@]3(C)C(=CC[C@@H]4[C@@]5(C)CC/C(=N/O)C(C)(C)[C@@H]5CC[C@]43C)[C@@H]2C1
REMARK SMILES IDX 1 1 2 2 3 3 4 4 5 5 6 6 10 7 11 8 12 9 13 10 14 11 15 12
REMARK SMILES IDX 16 13 17 14 18 15 19 16 20 17 21 18 22 19 25 20 26 21 27 22
REMARK SMILES IDX 28 23 29 24 30 25 31 26 32 27 33 28 34 29 7 30 8 31 9 32
REMARK SMILES IDX 23 34 24 35
REMARK H PARENT 9 33 24 36
ROOT
ATOM      1  C   UNL     1      -5.197  -3.277   0.000  1.00  0.00     0.011 C 
ATOM      2  C   UNL     1      -5.414  -1.793   0.000  1.00  0.00    -0.035 C 
ATOM      3  C   UNL     1      -6.838  -2.265   0.000  1.00  0.00     0.011 C 
ATOM      4  C   UNL     1      -6.127  -0.473   0.000  1.00  0.00     0.007 C 
ATOM      5  C   UNL     1      -5.339   0.804   0.000  1.00  0.00     0.020 C 
ATOM      6  C   UNL     1      -3.840   0.761   0.000  1.00  0.00     0.074 C 
ATOM      7  C   UNL     1      -3.053   2.038   0.000  1.00  0.00     0.020 C 
ATOM      8  C   UNL     1      -1.553   1.994   0.000  1.00  0.00     0.013 C 
ATOM      9  C   UNL     1      -0.841   0.674   0.000  1.00  0.00    -0.006 C 
ATOM     10  C   UNL     1      -0.129  -0.646   0.000  1.00  0.00     0.017 C 
ATOM     11  C   UNL     1      -1.628  -0.603   0.000  1.00  0.00    -0.063 C 
ATOM     12  C   UNL     1      -0.916  -1.923   0.000  1.00  0.00    -0.027 C 
ATOM     13  C   UNL     1       0.583  -1.966   0.000  1.00  0.00     0.032 C 
ATOM     14  C   UNL     1       1.370  -0.689   0.000  1.00  0.00     0.006 C 
ATOM     15  C   UNL     1       2.870  -0.733   0.000  1.00  0.00    -0.025 C 
ATOM     16  C   UNL     1       2.083  -2.010   0.000  1.00  0.00     0.012 C 
ATOM     17  C   UNL     1       3.582  -2.053   0.000  1.00  0.00     0.013 C 
ATOM     18  C   UNL     1       5.081  -2.096   0.000  1.00  0.00     0.056 C 
ATOM     19  C   UNL     1       5.869  -0.819   0.000  1.00  0.00     0.063 C 
ATOM     20  C   UNL     1       5.156   0.501   0.000  1.00  0.00     0.010 C 
ATOM     21  C   UNL     1       4.939   1.985   0.000  1.00  0.00     0.018 C 
ATOM     22  C   UNL     1       6.580   0.973   0.000  1.00  0.00     0.018 C 
ATOM     23  C   UNL     1       3.657   0.544   0.000  1.00  0.00     0.007 C 
ATOM     24  C   UNL     1       2.945   1.864   0.000  1.00  0.00     0.006 C 
ATOM     25  C   UNL     1       1.445   1.908   0.000  1.00  0.00     0.008 C 
ATOM     26  C   UNL     1       0.658   0.631   0.000  1.00  0.00    -0.020 C 
ATOM     27  C   UNL     1      -0.054   1.951   0.000  1.00  0.00     0.012 C 
ATOM     28  C   UNL     1      -3.128  -0.559   0.000  1.00  0.00     0.033 C 
ATOM     29  C   UNL     1      -3.915  -1.836   0.000  1.00  0.00     0.015 C 
ENDROOT
BRANCH   6  30
ATOM     30  C   UNL     1      -4.552   2.081   0.000  1.00  0.00     0.310 C 
ATOM     31  O   UNL     1      -6.051   2.124   0.000  1.00  0.00    -0.252 OA
BRANCH  30  32
ATOM     32  O   UNL     1      -3.765   3.358   0.000  1.00  0.00    -0.481 OA
ATOM     33  H   UNL     1       0.000   0.000   0.000  1.00  0.00     0.296 HD
ENDBRANCH  30  32
ENDBRANCH   6  30
BRANCH  19  34
ATOM     34  N   UNL     1       7.368  -0.862   0.000  1.00  0.00    -0.098 NA
BRANCH  34  35
ATOM     35  O   UNL     1       8.155   0.414   0.000  1.00  0.00    -0.411 OA
ATOM     36  H   UNL     1       0.000   0.000   0.000  1.00  0.00     0.330 HD
ENDBRANCH  34  35
ENDBRANCH  19  34
TORSDOF 4
