REMARK SMILES C=CCc1cc([C@H](C)Cc2ccc3c(c2)OCO3)c(OC)cc1O
REMARK SMILES IDX 4 1 5 2 6 3 19 4 22 5 23 6 3 7 2 8 1 9 24 10 7 12 8 13 9 14
REMARK SMILES IDX 10 15 11 16 15 17 12 18 14 19 13 20 16 21 18 22 17 23 20 24
REMARK SMILES IDX 21 25
REMARK H PARENT 24 11
ROOT
ATOM      1  C   UNL     1       1.012  -1.463   0.000  1.00  0.00    -0.002 A 
ATOM      2  C   UNL     1       0.667  -0.003   0.000  1.00  0.00     0.015 A 
ATOM      3  C   UNL     1       1.758   1.026   0.000  1.00  0.00    -0.002 A 
ATOM      4  C   UNL     1       3.195   0.595   0.000  1.00  0.00     0.126 A 
ATOM      5  C   UNL     1       3.540  -0.865   0.000  1.00  0.00     0.093 A 
ATOM      6  C   UNL     1       2.449  -1.894   0.000  1.00  0.00     0.122 A 
ENDROOT
BRANCH   1   7
ATOM      7  C   UNL     1      -0.080  -2.491   0.000  1.00  0.00     0.066 C 
BRANCH   7   8
ATOM      8  C   UNL     1       0.265  -3.951   0.000  1.00  0.00    -0.030 C 
ATOM      9  C   UNL     1      -0.826  -4.980   0.000  1.00  0.00     0.004 C 
ENDBRANCH   7   8
ENDBRANCH   1   7
BRANCH   6  10
ATOM     10  O   UNL     1       2.794  -3.353   0.000  1.00  0.00    -0.508 OA
ATOM     11  H   UNL     1       0.000   0.000   0.000  1.00  0.00     0.293 HD
ENDBRANCH   6  10
BRANCH   3  12
ATOM     12  C   UNL     1       1.413   2.486   0.000  1.00  0.00     0.024 C 
ATOM     13  C   UNL     1       2.505   3.514   0.000  1.00  0.00     0.013 C 
BRANCH  12  14
ATOM     14  C   UNL     1      -0.024   2.917   0.000  1.00  0.00     0.043 C 
BRANCH  14  15
ATOM     15  C   UNL     1      -1.115   1.888   0.000  1.00  0.00    -0.043 A 
ATOM     16  C   UNL     1      -0.770   0.428   0.000  1.00  0.00     0.008 A 
ATOM     17  C   UNL     1      -2.552   2.319   0.000  1.00  0.00     0.054 A 
ATOM     18  C   UNL     1      -1.862  -0.601   0.000  1.00  0.00     0.051 A 
ATOM     19  C   UNL     1      -3.644   1.290   0.000  1.00  0.00     0.166 A 
ATOM     20  C   UNL     1      -3.299  -0.170   0.000  1.00  0.00     0.165 A 
ATOM     21  O   UNL     1      -5.139   1.413   0.000  1.00  0.00    -0.454 OA
ATOM     22  O   UNL     1      -4.580  -0.949   0.000  1.00  0.00    -0.454 OA
ATOM     23  C   UNL     1      -5.717   0.029   0.000  1.00  0.00     0.468 C 
ENDBRANCH  14  15
ENDBRANCH  12  14
ENDBRANCH   3  12
BRANCH   4  24
ATOM     24  O   UNL     1       4.287   1.624   0.000  1.00  0.00    -0.496 OA
ATOM     25  C   UNL     1       5.723   1.193   0.000  1.00  0.00     0.278 C 
ENDBRANCH   4  24
TORSDOF 7
