REMARK SMILES Cc1nc(CCCCCCC(=O)CCCCCO)ccc1O
REMARK SMILES IDX 10 1 9 2 8 3 7 4 6 5 5 6 4 7 2 8 3 9 21 10 20 11 19 12 1 13
REMARK SMILES IDX 22 14 11 16 12 17 13 18 14 19 15 20 16 21 17 22 18 23
REMARK H PARENT 22 15 18 24
ROOT
ATOM      1  C   UNL     1      -2.703   0.279   0.000  1.00  0.00     0.075 C 
ENDROOT
BRANCH   1   2
ATOM      2  C   UNL     1      -1.466  -0.569   0.000  1.00  0.00     0.008 C 
BRANCH   2   3
ATOM      3  C   UNL     1      -0.112   0.077   0.000  1.00  0.00     0.000 C 
BRANCH   3   4
ATOM      4  C   UNL     1       1.124  -0.772   0.000  1.00  0.00     0.000 C 
BRANCH   4   5
ATOM      5  C   UNL     1       2.478  -0.125   0.000  1.00  0.00     0.006 C 
BRANCH   5   6
ATOM      6  C   UNL     1       3.715  -0.974   0.000  1.00  0.00     0.056 C 
BRANCH   6   7
ATOM      7  C   UNL     1       5.068  -0.327   0.000  1.00  0.00     0.041 A 
ATOM      8  C   UNL     1       7.658  -0.529   0.000  1.00  0.00     0.079 A 
ATOM      9  N   UNL     1       6.305  -1.176   0.000  1.00  0.00    -0.254 NA
ATOM     10  C   UNL     1       7.775   0.966   0.000  1.00  0.00     0.136 A 
ATOM     11  C   UNL     1       6.538   1.815   0.000  1.00  0.00     0.050 A 
ATOM     12  C   UNL     1       5.185   1.168   0.000  1.00  0.00     0.027 A 
ATOM     13  C   UNL     1       8.895  -1.378   0.000  1.00  0.00     0.071 C 
BRANCH  10  14
ATOM     14  O   UNL     1       9.128   1.613   0.000  1.00  0.00    -0.506 OA
ATOM     15  H   UNL     1       0.000   0.000   0.000  1.00  0.00     0.293 HD
ENDBRANCH  10  14
ENDBRANCH   6   7
ENDBRANCH   5   6
ENDBRANCH   4   5
ENDBRANCH   3   4
ENDBRANCH   2   3
ENDBRANCH   1   2
BRANCH   1  16
ATOM     16  C   UNL     1      -4.056  -0.367   0.000  1.00  0.00     0.132 C 
ATOM     17  O   UNL     1      -4.173  -1.863   0.000  1.00  0.00    -0.300 OA
BRANCH  16  18
ATOM     18  C   UNL     1      -5.293   0.482   0.000  1.00  0.00     0.075 C 
BRANCH  18  19
ATOM     19  C   UNL     1      -6.646  -0.165   0.000  1.00  0.00     0.008 C 
BRANCH  19  20
ATOM     20  C   UNL     1      -7.883   0.684   0.000  1.00  0.00     0.003 C 
BRANCH  20  21
ATOM     21  C   UNL     1      -9.236   0.037   0.000  1.00  0.00     0.028 C 
BRANCH  21  22
ATOM     22  C   UNL     1     -10.473   0.886   0.000  1.00  0.00     0.156 C 
BRANCH  22  23
ATOM     23  O   UNL     1     -11.827   0.239   0.000  1.00  0.00    -0.396 OA
ATOM     24  H   UNL     1       0.000   0.000   0.000  1.00  0.00     0.210 HD
ENDBRANCH  22  23
ENDBRANCH  21  22
ENDBRANCH  20  21
ENDBRANCH  19  20
ENDBRANCH  18  19
ENDBRANCH  16  18
ENDBRANCH   1  16
TORSDOF 14
