REMARK SMILES COc1c2ccoc2nc2c3c(ccc12)C=CC(C)(C)O3
REMARK SMILES IDX 3 1 4 2 5 3 6 4 7 5 8 6 9 7 10 8 11 9 21 10 18 11 19 12
REMARK SMILES IDX 20 13 17 14 16 15 12 16 13 17 14 18 15 19 2 20 1 21
REMARK H PARENT
ROOT
ATOM      1  C   UNL     1      -2.346  -0.971   0.000  1.00  0.00     0.141 A 
ATOM      2  C   UNL     1      -2.939   0.407   0.000  1.00  0.00     0.083 A 
ATOM      3  C   UNL     1      -4.360   0.888   0.000  1.00  0.00     0.056 A 
ATOM      4  C   UNL     1      -4.342   2.388   0.000  1.00  0.00     0.198 A 
ATOM      5  O   UNL     1      -2.910   2.833   0.000  1.00  0.00    -0.446 OA
ATOM      6  C   UNL     1      -2.043   1.609   0.000  1.00  0.00     0.230 A 
ATOM      7  N   UNL     1      -0.553   1.434   0.000  1.00  0.00    -0.208 NA
ATOM      8  C   UNL     1       0.040   0.056   0.000  1.00  0.00     0.121 A 
ATOM      9  C   UNL     1       1.530  -0.119   0.000  1.00  0.00     0.154 A 
ATOM     10  O   UNL     1       2.426   1.084   0.000  1.00  0.00    -0.481 OA
ATOM     11  C   UNL     1       3.916   0.909   0.000  1.00  0.00     0.122 C 
ATOM     12  C   UNL     1       5.376   1.254   0.000  1.00  0.00     0.061 C 
ATOM     13  C   UNL     1       3.830   2.406   0.000  1.00  0.00     0.061 C 
ATOM     14  C   UNL     1       4.509  -0.469   0.000  1.00  0.00     0.021 C 
ATOM     15  C   UNL     1       3.613  -1.671   0.000  1.00  0.00     0.012 C 
ATOM     16  C   UNL     1       2.123  -1.496   0.000  1.00  0.00     0.019 A 
ATOM     17  C   UNL     1       1.226  -2.699   0.000  1.00  0.00     0.013 A 
ATOM     18  C   UNL     1      -0.263  -2.524   0.000  1.00  0.00     0.015 A 
ATOM     19  C   UNL     1      -0.857  -1.146   0.000  1.00  0.00     0.047 A 
ENDROOT
BRANCH   1  20
ATOM     20  O   UNL     1      -3.243  -2.174   0.000  1.00  0.00    -0.495 OA
ATOM     21  C   UNL     1      -4.732  -1.999   0.000  1.00  0.00     0.278 C 
ENDBRANCH   1  20
TORSDOF 1
