REMARK SMILES COc1cc(O[C@@H]2O[C@H](CO[C@@H]3OC[C@](O)(CO)[C@H]3O)[C@@H](O)[C@H](O)[C@H]2O)cc(OC)c1OC
REMARK SMILES IDX 10 1 9 2 7 3 8 4 25 5 23 6 21 7 6 8 5 9 3 10 4 11 31 12
REMARK SMILES IDX 28 13 27 14 2 15 1 16 32 17 33 18 29 19 30 20 26 21 24 23
REMARK SMILES IDX 22 25 11 27 12 28 13 29 19 30 14 31 15 32 20 33 16 35 17 37
REMARK SMILES IDX 18 38
REMARK H PARENT 26 22 24 24 22 26 20 34 16 36 18 39
ROOT
ATOM      1  C   UNL     1       1.669   2.415   0.000  1.00  0.00     0.198 C 
ENDROOT
BRANCH   1   2
ATOM      2  C   UNL     1       0.246   2.888   0.000  1.00  0.00     0.180 C 
ATOM      3  C   UNL     1      -2.299   2.366   0.000  1.00  0.00     0.339 C 
ATOM      4  O   UNL     1      -0.876   1.892   0.000  1.00  0.00    -0.332 OA
ATOM      5  C   UNL     1      -2.601   3.835   0.000  1.00  0.00     0.214 C 
ATOM      6  C   UNL     1      -1.479   4.831   0.000  1.00  0.00     0.180 C 
ATOM      7  C   UNL     1      -0.056   4.358   0.000  1.00  0.00     0.177 C 
BRANCH   3   8
ATOM      8  O   UNL     1      -3.421   1.370   0.000  1.00  0.00    -0.462 OA
BRANCH   8   9
ATOM      9  C   UNL     1      -3.120  -0.099   0.000  1.00  0.00     0.130 A 
ATOM     10  C   UNL     1      -3.940  -2.564   0.000  1.00  0.00     0.168 A 
ATOM     11  C   UNL     1      -4.242  -1.095   0.000  1.00  0.00     0.097 A 
ATOM     12  C   UNL     1      -2.517  -3.038   0.000  1.00  0.00     0.203 A 
ATOM     13  C   UNL     1      -1.395  -2.042   0.000  1.00  0.00     0.168 A 
ATOM     14  C   UNL     1      -1.696  -0.573   0.000  1.00  0.00     0.097 A 
BRANCH  10  15
ATOM     15  O   UNL     1      -5.062  -3.560   0.000  1.00  0.00    -0.493 OA
ATOM     16  C   UNL     1      -6.485  -3.087   0.000  1.00  0.00     0.278 C 
ENDBRANCH  10  15
BRANCH  12  17
ATOM     17  O   UNL     1      -2.215  -4.507   0.000  1.00  0.00    -0.490 OA
ATOM     18  C   UNL     1      -3.337  -5.503   0.000  1.00  0.00     0.278 C 
ENDBRANCH  12  17
BRANCH  13  19
ATOM     19  O   UNL     1       0.028  -2.516   0.000  1.00  0.00    -0.493 OA
ATOM     20  C   UNL     1       0.330  -3.985   0.000  1.00  0.00     0.278 C 
ENDBRANCH  13  19
ENDBRANCH   8   9
ENDBRANCH   3   8
BRANCH   5  21
ATOM     21  O   UNL     1      -4.024   4.309   0.000  1.00  0.00    -0.384 OA
ATOM     22  H   UNL     1       0.000   0.000   0.000  1.00  0.00     0.211 HD
ENDBRANCH   5  21
BRANCH   6  23
ATOM     23  O   UNL     1      -1.781   6.301   0.000  1.00  0.00    -0.387 OA
ATOM     24  H   UNL     1       0.000   0.000   0.000  1.00  0.00     0.211 HD
ENDBRANCH   6  23
BRANCH   7  25
ATOM     25  O   UNL     1       1.066   5.353   0.000  1.00  0.00    -0.387 OA
ATOM     26  H   UNL     1       0.000   0.000   0.000  1.00  0.00     0.211 HD
ENDBRANCH   7  25
ENDBRANCH   1   2
BRANCH   1  27
ATOM     27  O   UNL     1       1.970   0.945   0.000  1.00  0.00    -0.347 OA
BRANCH  27  28
ATOM     28  C   UNL     1       3.394   0.472   0.000  1.00  0.00     0.281 C 
ATOM     29  O   UNL     1       4.613   1.345   0.000  1.00  0.00    -0.347 OA
ATOM     30  C   UNL     1       3.847  -0.958   0.000  1.00  0.00     0.207 C 
ATOM     31  C   UNL     1       5.821   0.455   0.000  1.00  0.00     0.204 C 
ATOM     32  C   UNL     1       5.347  -0.969   0.000  1.00  0.00     0.142 C 
BRANCH  30  33
ATOM     33  O   UNL     1       2.957  -2.166   0.000  1.00  0.00    -0.385 OA
ATOM     34  H   UNL     1       0.000   0.000   0.000  1.00  0.00     0.211 HD
ENDBRANCH  30  33
BRANCH  32  35
ATOM     35  O   UNL     1       5.180  -2.459   0.000  1.00  0.00    -0.382 OA
ATOM     36  H   UNL     1       0.000   0.000   0.000  1.00  0.00     0.211 HD
ENDBRANCH  32  35
BRANCH  32  37
ATOM     37  C   UNL     1       6.812  -1.291   0.000  1.00  0.00     0.196 C 
BRANCH  37  38
ATOM     38  O   UNL     1       7.266  -2.721   0.000  1.00  0.00    -0.393 OA
ATOM     39  H   UNL     1       0.000   0.000   0.000  1.00  0.00     0.210 HD
ENDBRANCH  37  38
ENDBRANCH  32  37
ENDBRANCH  27  28
ENDBRANCH   1  27
TORSDOF 15
