REMARK SMILES COc1c(-c2ccc(O)c(O)c2-c2c(O)cc(O)c3c(=O)c(OC)c(-c4ccc(O)c(O)c4)oc23)oc2cc(O)cc(O)c2c1=O
REMARK SMILES IDX 13 1 14 2 16 3 17 4 19 5 35 6 34 7 25 8 22 9 20 10 21 11
REMARK SMILES IDX 12 12 5 13 6 14 7 15 10 16 8 17 4 18 3 19 45 20 36 21 44 22
REMARK SMILES IDX 37 23 42 24 38 25 41 26 39 27 46 28 2 29 1 30 43 31 40 33
REMARK SMILES IDX 11 35 9 37 15 39 18 41 26 43 27 44 33 45 28 46 31 47 29 48
REMARK SMILES IDX 32 49 30 51 23 53 24 54
REMARK H PARENT 43 32 40 34 11 36 9 38 15 40 18 42 32 50 30 52
ROOT
ATOM      1  C   UNL     1       0.266  -0.010   0.000  1.00  0.00     0.072 A 
ATOM      2  C   UNL     1       1.549  -0.787   0.000  1.00  0.00     0.131 A 
ATOM      3  C   UNL     1       1.518  -2.286   0.000  1.00  0.00     0.094 A 
ATOM      4  C   UNL     1       0.204  -3.010   0.000  1.00  0.00     0.134 A 
ATOM      5  C   UNL     1      -1.079  -2.233   0.000  1.00  0.00     0.111 A 
ATOM      6  C   UNL     1      -1.049  -0.733   0.000  1.00  0.00     0.154 A 
ATOM      7  O   UNL     1      -2.332   0.043   0.000  1.00  0.00    -0.451 OA
ATOM      8  C   UNL     1      -3.646  -0.680   0.000  1.00  0.00     0.180 A 
ATOM      9  C   UNL     1      -3.677  -2.180   0.000  1.00  0.00     0.210 A 
ATOM     10  C   UNL     1      -2.393  -2.956   0.000  1.00  0.00     0.239 A 
ATOM     11  O   UNL     1      -2.424  -4.456   0.000  1.00  0.00    -0.285 OA
ENDROOT
BRANCH   1  12
ATOM     12  C   UNL     1       0.296   1.490   0.000  1.00  0.00     0.046 A 
ATOM     13  C   UNL     1       1.611   2.213   0.000  1.00  0.00     0.033 A 
ATOM     14  C   UNL     1       1.641   3.712   0.000  1.00  0.00     0.017 A 
ATOM     15  C   UNL     1       0.358   4.489   0.000  1.00  0.00     0.051 A 
ATOM     16  C   UNL     1      -0.987   2.266   0.000  1.00  0.00     0.166 A 
ATOM     17  C   UNL     1      -0.956   3.766   0.000  1.00  0.00     0.158 A 
BRANCH  13  18
ATOM     18  C   UNL     1       2.894   1.436   0.000  1.00  0.00     0.181 A 
ATOM     19  C   UNL     1       4.208   2.159   0.000  1.00  0.00     0.210 A 
ATOM     20  C   UNL     1       5.491   1.383   0.000  1.00  0.00     0.239 A 
ATOM     21  O   UNL     1       2.863  -0.064   0.000  1.00  0.00    -0.452 OA
ATOM     22  C   UNL     1       5.461  -0.117   0.000  1.00  0.00     0.111 A 
ATOM     23  C   UNL     1       4.146  -0.840   0.000  1.00  0.00     0.146 A 
ATOM     24  C   UNL     1       6.744  -0.893   0.000  1.00  0.00     0.134 A 
ATOM     25  C   UNL     1       4.116  -2.340   0.000  1.00  0.00     0.094 A 
ATOM     26  C   UNL     1       6.713  -2.393   0.000  1.00  0.00     0.093 A 
ATOM     27  C   UNL     1       5.399  -3.116   0.000  1.00  0.00     0.123 A 
ATOM     28  O   UNL     1       6.806   2.106   0.000  1.00  0.00    -0.285 OA
BRANCH  19  29
ATOM     29  O   UNL     1       4.239   3.659   0.000  1.00  0.00    -0.490 OA
ATOM     30  C   UNL     1       5.553   4.382   0.000  1.00  0.00     0.278 C 
ENDBRANCH  19  29
BRANCH  24  31
ATOM     31  O   UNL     1       8.058  -0.170   0.000  1.00  0.00    -0.507 OA
ATOM     32  H   UNL     1       0.000   0.000   0.000  1.00  0.00     0.293 HD
ENDBRANCH  24  31
BRANCH  27  33
ATOM     33  O   UNL     1       5.368  -4.616   0.000  1.00  0.00    -0.508 OA
ATOM     34  H   UNL     1       0.000   0.000   0.000  1.00  0.00     0.293 HD
ENDBRANCH  27  33
ENDBRANCH  13  18
BRANCH  16  35
ATOM     35  O   UNL     1      -2.301   1.543   0.000  1.00  0.00    -0.504 OA
ATOM     36  H   UNL     1       0.000   0.000   0.000  1.00  0.00     0.293 HD
ENDBRANCH  16  35
BRANCH  17  37
ATOM     37  O   UNL     1      -2.240   4.542   0.000  1.00  0.00    -0.504 OA
ATOM     38  H   UNL     1       0.000   0.000   0.000  1.00  0.00     0.293 HD
ENDBRANCH  17  37
ENDBRANCH   1  12
BRANCH   2  39
ATOM     39  O   UNL     1       2.320  -0.583   0.000  1.00  0.00    -0.507 OA
ATOM     40  H   UNL     1       0.000   0.000   0.000  1.00  0.00     0.293 HD
ENDBRANCH   2  39
BRANCH   4  41
ATOM     41  O   UNL     1       0.173  -4.509   0.000  1.00  0.00    -0.507 OA
ATOM     42  H   UNL     1       0.000   0.000   0.000  1.00  0.00     0.293 HD
ENDBRANCH   4  41
BRANCH   8  43
ATOM     43  C   UNL     1      -4.929   0.096   0.000  1.00  0.00     0.025 A 
ATOM     44  C   UNL     1      -4.899   1.596   0.000  1.00  0.00     0.016 A 
ATOM     45  C   UNL     1      -6.244  -0.627   0.000  1.00  0.00     0.062 A 
ATOM     46  C   UNL     1      -6.182   2.373   0.000  1.00  0.00     0.051 A 
ATOM     47  C   UNL     1      -7.527   0.150   0.000  1.00  0.00     0.158 A 
ATOM     48  C   UNL     1      -7.496   1.649   0.000  1.00  0.00     0.157 A 
BRANCH  47  49
ATOM     49  O   UNL     1      -8.841  -0.573   0.000  1.00  0.00    -0.504 OA
ATOM     50  H   UNL     1       0.000   0.000   0.000  1.00  0.00     0.293 HD
ENDBRANCH  47  49
BRANCH  48  51
ATOM     51  O   UNL     1      -8.780   2.426   0.000  1.00  0.00    -0.504 OA
ATOM     52  H   UNL     1       0.000   0.000   0.000  1.00  0.00     0.293 HD
ENDBRANCH  48  51
ENDBRANCH   8  43
BRANCH   9  53
ATOM     53  O   UNL     1      -4.991  -2.903   0.000  1.00  0.00    -0.490 OA
ATOM     54  C   UNL     1      -5.022  -4.403   0.000  1.00  0.00     0.278 C 
ENDBRANCH   9  53
TORSDOF 13
