REMARK SMILES COc1ccc(C=CC(=O)c2c(O)cc(OC)c3c2OC(C)(C)C=C3)cc1
REMARK SMILES IDX 8 1 7 2 6 3 3 4 4 5 27 6 5 7 26 8 2 9 1 10 9 11 10 12 11 13
REMARK SMILES IDX 12 14 19 15 14 16 18 17 20 18 15 19 25 20 21 21 24 22 22 23
REMARK SMILES IDX 23 24 13 25 16 27 17 28
REMARK H PARENT 13 26
ROOT
ATOM      1  C   UNL     1      -1.244  -0.391   0.000  1.00  0.00     0.053 C 
ENDROOT
BRANCH   1   2
ATOM      2  C   UNL     1      -2.347  -1.407   0.000  1.00  0.00     0.012 C 
BRANCH   2   3
ATOM      3  C   UNL     1      -3.779  -0.959   0.000  1.00  0.00    -0.025 A 
ATOM      4  C   UNL     1      -6.642  -0.064   0.000  1.00  0.00     0.118 A 
ATOM      5  C   UNL     1      -5.539   0.952   0.000  1.00  0.00     0.047 A 
ATOM      6  C   UNL     1      -6.314  -1.528   0.000  1.00  0.00     0.047 A 
ATOM      7  C   UNL     1      -4.107   0.504   0.000  1.00  0.00     0.012 A 
ATOM      8  C   UNL     1      -4.882  -1.975   0.000  1.00  0.00     0.012 A 
BRANCH   4   9
ATOM      9  O   UNL     1      -8.074   0.384   0.000  1.00  0.00    -0.497 OA
ATOM     10  C   UNL     1      -8.402   1.847   0.000  1.00  0.00     0.278 C 
ENDBRANCH   4   9
ENDBRANCH   2   3
ENDBRANCH   1   2
BRANCH   1  11
ATOM     11  C   UNL     1       0.188  -0.839   0.000  1.00  0.00     0.193 C 
ATOM     12  O   UNL     1       0.516  -2.302   0.000  1.00  0.00    -0.289 OA
BRANCH  11  13
ATOM     13  C   UNL     1       1.292   0.177   0.000  1.00  0.00     0.107 A 
ATOM     14  C   UNL     1       0.963   1.641   0.000  1.00  0.00     0.134 A 
ATOM     15  C   UNL     1       2.723  -0.270   0.000  1.00  0.00     0.146 A 
ATOM     16  C   UNL     1       2.067   2.657   0.000  1.00  0.00     0.094 A 
ATOM     17  C   UNL     1       3.827   0.746   0.000  1.00  0.00     0.060 A 
ATOM     18  O   UNL     1       3.051  -1.734   0.000  1.00  0.00    -0.482 OA
ATOM     19  C   UNL     1       3.498   2.210   0.000  1.00  0.00     0.133 A 
ATOM     20  C   UNL     1       5.258   0.298   0.000  1.00  0.00     0.015 C 
ATOM     21  C   UNL     1       4.483  -2.181   0.000  1.00  0.00     0.122 C 
ATOM     22  C   UNL     1       5.587  -1.165   0.000  1.00  0.00     0.021 C 
ATOM     23  C   UNL     1       5.675  -3.092   0.000  1.00  0.00     0.061 C 
ATOM     24  C   UNL     1       3.794  -3.514   0.000  1.00  0.00     0.061 C 
BRANCH  14  25
ATOM     25  O   UNL     1      -0.468   2.089   0.000  1.00  0.00    -0.507 OA
ATOM     26  H   UNL     1       0.000   0.000   0.000  1.00  0.00     0.293 HD
ENDBRANCH  14  25
BRANCH  19  27
ATOM     27  O   UNL     1       4.602   3.226   0.000  1.00  0.00    -0.496 OA
ATOM     28  C   UNL     1       4.274   4.689   0.000  1.00  0.00     0.278 C 
ENDBRANCH  19  27
ENDBRANCH  11  13
ENDBRANCH   1  11
TORSDOF 7
