REMARK SMILES COC(=O)c1cc(CC=C(C)C)c2c(c1)CCC(C)(C)O2
REMARK SMILES IDX 5 1 6 2 7 3 13 4 21 5 18 6 19 7 20 8 17 9 16 10 14 11 15 12
REMARK SMILES IDX 3 13 4 14 2 15 1 16 8 17 9 18 10 19 11 20 12 21
REMARK H PARENT
ROOT
ATOM      1  C   UNL     1      -2.196   0.106   0.000  1.00  0.00     0.060 A 
ATOM      2  C   UNL     1      -1.161  -0.981   0.000  1.00  0.00     0.023 A 
ATOM      3  C   UNL     1       0.296  -0.628   0.000  1.00  0.00    -0.001 A 
ATOM      4  C   UNL     1       0.720   0.810   0.000  1.00  0.00     0.126 A 
ATOM      5  O   UNL     1       2.178   1.163   0.000  1.00  0.00    -0.487 OA
ATOM      6  C   UNL     1       2.602   2.602   0.000  1.00  0.00     0.104 C 
ATOM      7  C   UNL     1       3.492   3.809   0.000  1.00  0.00     0.056 C 
ATOM      8  C   UNL     1       3.946   1.935   0.000  1.00  0.00     0.056 C 
ATOM      9  C   UNL     1       1.568   3.688   0.000  1.00  0.00     0.053 C 
ATOM     10  C   UNL     1       0.110   3.336   0.000  1.00  0.00     0.043 C 
ATOM     11  C   UNL     1      -0.314   1.897   0.000  1.00  0.00    -0.005 A 
ATOM     12  C   UNL     1      -1.772   1.544   0.000  1.00  0.00     0.023 A 
ENDROOT
BRANCH   1  13
ATOM     13  C   UNL     1      -3.654  -0.247   0.000  1.00  0.00     0.337 C 
ATOM     14  O   UNL     1      -4.077  -1.686   0.000  1.00  0.00    -0.246 OA
BRANCH  13  15
ATOM     15  O   UNL     1      -4.688   0.840   0.000  1.00  0.00    -0.465 OA
ATOM     16  C   UNL     1      -6.146   0.487   0.000  1.00  0.00     0.282 C 
ENDBRANCH  13  15
ENDBRANCH   1  13
BRANCH   3  17
ATOM     17  C   UNL     1       1.331  -1.715   0.000  1.00  0.00     0.066 C 
BRANCH  17  18
ATOM     18  C   UNL     1       0.907  -3.154   0.000  1.00  0.00    -0.023 C 
BRANCH  18  19
ATOM     19  C   UNL     1       1.941  -4.240   0.000  1.00  0.00    -0.080 C 
ATOM     20  C   UNL     1       1.517  -5.679   0.000  1.00  0.00     0.039 C 
ATOM     21  C   UNL     1       3.399  -3.888   0.000  1.00  0.00     0.039 C 
ENDBRANCH  18  19
ENDBRANCH  17  18
ENDBRANCH   3  17
TORSDOF 5
