REMARK SMILES COc1cc(-c2cc(=O)c3c(OC)cc(OC)c(OC)c3o2)cc(OC)c1OC
REMARK SMILES IDX 6 1 7 2 8 3 9 4 10 5 11 6 14 7 15 8 18 9 21 10 22 11 5 12
REMARK SMILES IDX 3 13 4 14 27 15 24 16 23 17 2 18 1 19 28 20 29 21 25 22
REMARK SMILES IDX 26 23 19 24 20 25 12 26 13 27 16 28 17 29
REMARK H PARENT
ROOT
ATOM      1  C   UNL     1      -0.420  -0.658   0.000  1.00  0.00     0.139 A 
ATOM      2  C   UNL     1       0.115  -2.060   0.000  1.00  0.00     0.100 A 
ATOM      3  C   UNL     1       1.596  -2.298   0.000  1.00  0.00     0.197 A 
ATOM      4  O   UNL     1       2.131  -3.699   0.000  1.00  0.00    -0.289 OA
ATOM      5  C   UNL     1       2.542  -1.134   0.000  1.00  0.00     0.111 A 
ATOM      6  C   UNL     1       4.023  -1.371   0.000  1.00  0.00     0.137 A 
ATOM      7  C   UNL     1       4.970  -0.208   0.000  1.00  0.00     0.097 A 
ATOM      8  C   UNL     1       4.435   1.194   0.000  1.00  0.00     0.168 A 
ATOM      9  C   UNL     1       2.954   1.431   0.000  1.00  0.00     0.205 A 
ATOM     10  C   UNL     1       2.007   0.268   0.000  1.00  0.00     0.188 A 
ATOM     11  O   UNL     1       0.526   0.505   0.000  1.00  0.00    -0.452 OA
ENDROOT
BRANCH   1  12
ATOM     12  C   UNL     1      -1.901  -0.421   0.000  1.00  0.00     0.025 A 
ATOM     13  C   UNL     1      -3.917   1.218   0.000  1.00  0.00     0.165 A 
ATOM     14  C   UNL     1      -2.436   0.981   0.000  1.00  0.00     0.062 A 
ATOM     15  C   UNL     1      -4.863   0.054   0.000  1.00  0.00     0.203 A 
ATOM     16  C   UNL     1      -4.328  -1.347   0.000  1.00  0.00     0.165 A 
ATOM     17  C   UNL     1      -2.847  -1.585   0.000  1.00  0.00     0.062 A 
BRANCH  13  18
ATOM     18  O   UNL     1      -4.452   2.620   0.000  1.00  0.00    -0.493 OA
ATOM     19  C   UNL     1      -3.505   3.784   0.000  1.00  0.00     0.278 C 
ENDBRANCH  13  18
BRANCH  15  20
ATOM     20  O   UNL     1      -6.344   0.292   0.000  1.00  0.00    -0.490 OA
ATOM     21  C   UNL     1      -6.879   1.694   0.000  1.00  0.00     0.278 C 
ENDBRANCH  15  20
BRANCH  16  22
ATOM     22  O   UNL     1      -5.275  -2.511   0.000  1.00  0.00    -0.493 OA
ATOM     23  C   UNL     1      -6.756  -2.273   0.000  1.00  0.00     0.278 C 
ENDBRANCH  16  22
ENDBRANCH   1  12
BRANCH   9  24
ATOM     24  O   UNL     1       2.419   2.833   0.000  1.00  0.00    -0.490 OA
ATOM     25  C   UNL     1       3.365   3.997   0.000  1.00  0.00     0.278 C 
ENDBRANCH   9  24
BRANCH   6  26
ATOM     26  O   UNL     1       4.558  -2.773   0.000  1.00  0.00    -0.496 OA
ATOM     27  C   UNL     1       6.039  -3.010   0.000  1.00  0.00     0.278 C 
ENDBRANCH   6  26
BRANCH   8  28
ATOM     28  O   UNL     1       5.381   2.358   0.000  1.00  0.00    -0.493 OA
ATOM     29  C   UNL     1       6.862   2.120   0.000  1.00  0.00     0.278 C 
ENDBRANCH   8  28
TORSDOF 7
