REMARK SMILES CC(C)=CCN(CC=C(C)C)C(=N)N
REMARK SMILES IDX 6 1 12 2 14 3 5 6 4 7 2 8 1 9 3 10 7 11 8 12 9 13 10 14
REMARK SMILES IDX 11 15 13 16
REMARK H PARENT 14 4 14 5 13 17
ROOT
ATOM      1  N   UNL     1       0.000   0.107   0.000  1.00  0.00    -0.336 N 
ATOM      2  C   UNL     1       0.000   1.607   0.000  1.00  0.00     0.188 C 
ATOM      3  N   UNL     1       1.299   2.357   0.000  1.00  0.00    -0.370 N 
ATOM      4  H   UNL     1       0.000   0.000   0.000  1.00  0.00     0.159 HD
ATOM      5  H   UNL     1       0.000   0.000   0.000  1.00  0.00     0.159 HD
ENDROOT
BRANCH   1   6
ATOM      6  C   UNL     1      -1.299  -0.643   0.000  1.00  0.00     0.147 C 
BRANCH   6   7
ATOM      7  C   UNL     1      -2.598   0.107   0.000  1.00  0.00    -0.007 C 
BRANCH   7   8
ATOM      8  C   UNL     1      -3.897  -0.643   0.000  1.00  0.00    -0.079 C 
ATOM      9  C   UNL     1      -5.196   0.107   0.000  1.00  0.00     0.039 C 
ATOM     10  C   UNL     1      -3.897  -2.143   0.000  1.00  0.00     0.039 C 
ENDBRANCH   7   8
ENDBRANCH   6   7
ENDBRANCH   1   6
BRANCH   1  11
ATOM     11  C   UNL     1       1.299  -0.643   0.000  1.00  0.00     0.147 C 
BRANCH  11  12
ATOM     12  C   UNL     1       2.598   0.107   0.000  1.00  0.00    -0.007 C 
BRANCH  12  13
ATOM     13  C   UNL     1       3.897  -0.643   0.000  1.00  0.00    -0.079 C 
ATOM     14  C   UNL     1       5.196   0.107   0.000  1.00  0.00     0.039 C 
ATOM     15  C   UNL     1       3.897  -2.143   0.000  1.00  0.00     0.039 C 
ENDBRANCH  12  13
ENDBRANCH  11  12
ENDBRANCH   1  11
BRANCH   2  16
ATOM     16  N   UNL     1      -1.299   2.357   0.000  1.00  0.00    -0.269 NA
ATOM     17  H   UNL     1       0.000   0.000   0.000  1.00  0.00     0.191 HD
ENDBRANCH   2  16
TORSDOF 7
