REMARK SMILES COc1ccccc1C(=O)OCc1ccccc1
REMARK SMILES IDX 9 1 10 2 8 3 3 4 4 5 5 6 7 7 6 8 2 9 1 10 11 11 12 12 13 13
REMARK SMILES IDX 14 14 18 15 15 16 17 17 16 18
REMARK H PARENT
ROOT
ATOM      1  C   UNL     1      -1.062   1.391   0.000  1.00  0.00     0.342 C 
ATOM      2  O   UNL     1      -1.040   2.891   0.000  1.00  0.00    -0.246 OA
ENDROOT
BRANCH   1   3
ATOM      3  C   UNL     1      -2.372   0.660   0.000  1.00  0.00     0.102 A 
ATOM      4  C   UNL     1      -2.394  -0.840   0.000  1.00  0.00     0.133 A 
ATOM      5  C   UNL     1      -3.704  -1.570   0.000  1.00  0.00     0.047 A 
ATOM      6  C   UNL     1      -4.992  -0.801   0.000  1.00  0.00     0.004 A 
ATOM      7  C   UNL     1      -3.660   1.429   0.000  1.00  0.00     0.019 A 
ATOM      8  C   UNL     1      -4.970   0.699   0.000  1.00  0.00     0.001 A 
BRANCH   4   9
ATOM      9  O   UNL     1      -1.106  -1.609   0.000  1.00  0.00    -0.496 OA
ATOM     10  C   UNL     1      -1.129  -3.109   0.000  1.00  0.00     0.278 C 
ENDBRANCH   4   9
ENDBRANCH   1   3
BRANCH   1  11
ATOM     11  O   UNL     1       0.226   0.622   0.000  1.00  0.00    -0.457 OA
BRANCH  11  12
ATOM     12  C   UNL     1       1.536   1.353   0.000  1.00  0.00     0.269 C 
BRANCH  12  13
ATOM     13  C   UNL     1       2.824   0.583   0.000  1.00  0.00    -0.011 A 
ATOM     14  C   UNL     1       2.801  -0.916   0.000  1.00  0.00     0.007 A 
ATOM     15  C   UNL     1       4.133   1.314   0.000  1.00  0.00     0.007 A 
ATOM     16  C   UNL     1       4.089  -1.686   0.000  1.00  0.00     0.000 A 
ATOM     17  C   UNL     1       5.421   0.545   0.000  1.00  0.00     0.000 A 
ATOM     18  C   UNL     1       5.399  -0.955   0.000  1.00  0.00     0.000 A 
ENDBRANCH  12  13
ENDBRANCH  11  12
ENDBRANCH   1  11
TORSDOF 5
