REMARK SMILES COc1ccc(C=CC(=O)NCCc2ccc(O)cc2)cc1O
REMARK SMILES IDX 9 1 10 2 11 3 8 5 7 6 6 7 3 8 4 9 22 10 5 11 21 12 2 13 1 14
REMARK SMILES IDX 23 15 12 17 13 18 14 19 15 20 20 21 16 22 19 23 17 24 18 25
REMARK H PARENT 11 4 23 16 18 26
ROOT
ATOM      1  C   UNL     1       0.181   0.527   0.000  1.00  0.00     0.244 C 
ATOM      2  O   UNL     1       0.523   1.988   0.000  1.00  0.00    -0.270 OA
ATOM      3  N   UNL     1       1.275  -0.499   0.000  1.00  0.00    -0.352 N 
ATOM      4  H   UNL     1       0.000   0.000   0.000  1.00  0.00     0.163 HD
ENDROOT
BRANCH   1   5
ATOM      5  C   UNL     1      -1.254   0.092   0.000  1.00  0.00     0.072 C 
BRANCH   5   6
ATOM      6  C   UNL     1      -2.349   1.118   0.000  1.00  0.00     0.014 C 
BRANCH   6   7
ATOM      7  C   UNL     1      -3.784   0.684   0.000  1.00  0.00    -0.022 A 
ATOM      8  C   UNL     1      -6.656  -0.185   0.000  1.00  0.00     0.160 A 
ATOM      9  C   UNL     1      -6.314   1.275   0.000  1.00  0.00     0.051 A 
ATOM     10  C   UNL     1      -5.561  -1.211   0.000  1.00  0.00     0.158 A 
ATOM     11  C   UNL     1      -4.878   1.710   0.000  1.00  0.00     0.012 A 
ATOM     12  C   UNL     1      -4.126  -0.777   0.000  1.00  0.00     0.058 A 
BRANCH   8  13
ATOM     13  O   UNL     1      -8.091  -0.620   0.000  1.00  0.00    -0.493 OA
ATOM     14  C   UNL     1      -9.185   0.406   0.000  1.00  0.00     0.278 C 
ENDBRANCH   8  13
BRANCH  10  15
ATOM     15  O   UNL     1      -5.903  -2.672   0.000  1.00  0.00    -0.504 OA
ATOM     16  H   UNL     1       0.000   0.000   0.000  1.00  0.00     0.293 HD
ENDBRANCH  10  15
ENDBRANCH   6   7
ENDBRANCH   5   6
ENDBRANCH   1   5
BRANCH   3  17
ATOM     17  C   UNL     1       2.711  -0.065   0.000  1.00  0.00     0.121 C 
BRANCH  17  18
ATOM     18  C   UNL     1       3.805  -1.091   0.000  1.00  0.00     0.057 C 
BRANCH  18  19
ATOM     19  C   UNL     1       5.241  -0.656   0.000  1.00  0.00    -0.046 A 
ATOM     20  C   UNL     1       6.335  -1.682   0.000  1.00  0.00     0.007 A 
ATOM     21  C   UNL     1       5.582   0.805   0.000  1.00  0.00     0.007 A 
ATOM     22  C   UNL     1       7.771  -1.247   0.000  1.00  0.00     0.046 A 
ATOM     23  C   UNL     1       7.018   1.239   0.000  1.00  0.00     0.046 A 
ATOM     24  C   UNL     1       8.112   0.213   0.000  1.00  0.00     0.115 A 
BRANCH  24  25
ATOM     25  O   UNL     1       9.548   0.648   0.000  1.00  0.00    -0.508 OA
ATOM     26  H   UNL     1       0.000   0.000   0.000  1.00  0.00     0.293 HD
ENDBRANCH  24  25
ENDBRANCH  18  19
ENDBRANCH  17  18
ENDBRANCH   3  17
TORSDOF 9
