REMARK SMILES COc1cc([C@H]2OC[C@H]3[C@@H]2CO[C@@H]3c2cc(OC)c(O[C@@H]3O[C@H](CO)[C@@H](O)[C@H](O)[C@H]3O)c(OC)c2)cc(OC)c1O[C@@H]1O[C@H](CO)[C@@H](O)[C@H](O)[C@H]1O
REMARK SMILES IDX 6 1 7 2 8 3 9 4 10 5 11 6 12 7 13 8 5 9 3 10 40 11 4 12
REMARK SMILES IDX 37 13 36 14 2 15 1 16 41 17 42 18 43 19 51 20 44 21 49 22
REMARK SMILES IDX 47 23 52 24 45 26 46 27 50 29 48 31 38 33 39 34 14 35 15 36
REMARK SMILES IDX 35 37 16 38 32 39 19 40 17 41 18 42 33 43 34 44 20 45 21 46
REMARK SMILES IDX 22 47 30 48 23 49 28 50 26 51 31 52 24 54 25 55 29 57 27 59
REMARK H PARENT 52 25 46 28 50 30 48 32 31 53 25 56 29 58 27 60
ROOT
ATOM      1  C   UNL     1       1.743  -0.325   0.000  1.00  0.00     0.154 C 
ATOM      2  O   UNL     1       1.358  -1.775   0.000  1.00  0.00    -0.373 OA
ATOM      3  C   UNL     1      -0.140  -1.857   0.000  1.00  0.00     0.168 C 
ATOM      4  C   UNL     1      -0.680  -0.458   0.000  1.00  0.00     0.057 C 
ATOM      5  C   UNL     1       0.483   0.489   0.000  1.00  0.00     0.057 C 
ATOM      6  C   UNL     1      -0.058   1.888   0.000  1.00  0.00     0.168 C 
ATOM      7  O   UNL     1      -1.556   1.806   0.000  1.00  0.00    -0.373 OA
ATOM      8  C   UNL     1      -1.940   0.356   0.000  1.00  0.00     0.154 C 
ENDROOT
BRANCH   1   9
ATOM      9  C   UNL     1       3.142   0.215   0.000  1.00  0.00    -0.011 A 
ATOM     10  C   UNL     1       4.772   2.238   0.000  1.00  0.00     0.165 A 
ATOM     11  C   UNL     1       5.940   1.297   0.000  1.00  0.00     0.206 A 
ATOM     12  C   UNL     1       3.373   1.698   0.000  1.00  0.00     0.057 A 
ATOM     13  C   UNL     1       5.709  -0.185   0.000  1.00  0.00     0.165 A 
ATOM     14  C   UNL     1       4.310  -0.726   0.000  1.00  0.00     0.057 A 
BRANCH  10  15
ATOM     15  O   UNL     1       5.004   3.720   0.000  1.00  0.00    -0.493 OA
ATOM     16  C   UNL     1       6.403   4.261   0.000  1.00  0.00     0.278 C 
ENDBRANCH  10  15
BRANCH  11  17
ATOM     17  O   UNL     1       7.339   1.838   0.000  1.00  0.00    -0.454 OA
BRANCH  17  18
ATOM     18  C   UNL     1       8.507   0.897   0.000  1.00  0.00     0.339 C 
ATOM     19  O   UNL     1       8.276  -0.586   0.000  1.00  0.00    -0.332 OA
ATOM     20  C   UNL     1       9.906   1.437   0.000  1.00  0.00     0.214 C 
ATOM     21  C   UNL     1       9.444  -1.527   0.000  1.00  0.00     0.179 C 
ATOM     22  C   UNL     1      11.074   0.496   0.000  1.00  0.00     0.180 C 
ATOM     23  C   UNL     1      10.843  -0.986   0.000  1.00  0.00     0.177 C 
BRANCH  20  24
ATOM     24  O   UNL     1      10.138   2.919   0.000  1.00  0.00    -0.384 OA
ATOM     25  H   UNL     1       0.000   0.000   0.000  1.00  0.00     0.211 HD
ENDBRANCH  20  24
BRANCH  21  26
ATOM     26  C   UNL     1       9.213  -3.009   0.000  1.00  0.00     0.191 C 
BRANCH  26  27
ATOM     27  O   UNL     1      10.381  -3.950   0.000  1.00  0.00    -0.394 OA
ATOM     28  H   UNL     1       0.000   0.000   0.000  1.00  0.00     0.210 HD
ENDBRANCH  26  27
ENDBRANCH  21  26
BRANCH  22  29
ATOM     29  O   UNL     1      12.473   1.037   0.000  1.00  0.00    -0.387 OA
ATOM     30  H   UNL     1       0.000   0.000   0.000  1.00  0.00     0.211 HD
ENDBRANCH  22  29
BRANCH  23  31
ATOM     31  O   UNL     1      12.011  -1.927   0.000  1.00  0.00    -0.387 OA
ATOM     32  H   UNL     1       0.000   0.000   0.000  1.00  0.00     0.211 HD
ENDBRANCH  23  31
ENDBRANCH  17  18
ENDBRANCH  11  17
BRANCH  13  33
ATOM     33  O   UNL     1       6.877  -1.126   0.000  1.00  0.00    -0.493 OA
ATOM     34  C   UNL     1       6.646  -2.608   0.000  1.00  0.00     0.278 C 
ENDBRANCH  13  33
ENDBRANCH   1   9
BRANCH   8  35
ATOM     35  C   UNL     1      -3.340  -0.185   0.000  1.00  0.00    -0.011 A 
ATOM     36  C   UNL     1      -4.507   0.757   0.000  1.00  0.00     0.057 A 
ATOM     37  C   UNL     1      -3.571  -1.667   0.000  1.00  0.00     0.057 A 
ATOM     38  C   UNL     1      -5.907   0.216   0.000  1.00  0.00     0.165 A 
ATOM     39  C   UNL     1      -4.970  -2.208   0.000  1.00  0.00     0.165 A 
ATOM     40  C   UNL     1      -6.138  -1.266   0.000  1.00  0.00     0.206 A 
BRANCH  38  41
ATOM     41  O   UNL     1      -7.074   1.157   0.000  1.00  0.00    -0.493 OA
ATOM     42  C   UNL     1      -6.843   2.639   0.000  1.00  0.00     0.278 C 
ENDBRANCH  38  41
BRANCH  39  43
ATOM     43  O   UNL     1      -5.201  -3.690   0.000  1.00  0.00    -0.493 OA
ATOM     44  C   UNL     1      -4.033  -4.631   0.000  1.00  0.00     0.278 C 
ENDBRANCH  39  43
BRANCH  40  45
ATOM     45  O   UNL     1      -7.537  -1.807   0.000  1.00  0.00    -0.454 OA
BRANCH  45  46
ATOM     46  C   UNL     1      -8.705  -0.866   0.000  1.00  0.00     0.339 C 
ATOM     47  O   UNL     1      -8.474   0.616   0.000  1.00  0.00    -0.332 OA
ATOM     48  C   UNL     1     -10.104  -1.407   0.000  1.00  0.00     0.214 C 
ATOM     49  C   UNL     1      -9.642   1.558   0.000  1.00  0.00     0.179 C 
ATOM     50  C   UNL     1     -11.272  -0.465   0.000  1.00  0.00     0.180 C 
ATOM     51  C   UNL     1     -11.041   1.017   0.000  1.00  0.00     0.177 C 
BRANCH  48  52
ATOM     52  O   UNL     1     -10.335  -2.889   0.000  1.00  0.00    -0.384 OA
ATOM     53  H   UNL     1       0.000   0.000   0.000  1.00  0.00     0.211 HD
ENDBRANCH  48  52
BRANCH  49  54
ATOM     54  C   UNL     1      -9.410   3.040   0.000  1.00  0.00     0.191 C 
BRANCH  54  55
ATOM     55  O   UNL     1      -8.011   3.580   0.000  1.00  0.00    -0.394 OA
ATOM     56  H   UNL     1       0.000   0.000   0.000  1.00  0.00     0.210 HD
ENDBRANCH  54  55
ENDBRANCH  49  54
BRANCH  50  57
ATOM     57  O   UNL     1     -12.671  -1.006   0.000  1.00  0.00    -0.387 OA
ATOM     58  H   UNL     1       0.000   0.000   0.000  1.00  0.00     0.211 HD
ENDBRANCH  50  57
BRANCH  51  59
ATOM     59  O   UNL     1     -12.209   1.958   0.000  1.00  0.00    -0.387 OA
ATOM     60  H   UNL     1       0.000   0.000   0.000  1.00  0.00     0.211 HD
ENDBRANCH  51  59
ENDBRANCH  45  46
ENDBRANCH  40  45
ENDBRANCH   8  35
TORSDOF 20
