REMARK SMILES COc1ccc(-c2oc3cc(OC(C)=O)cc(O[C@@H]4O[C@@H](C)[C@H](O)[C@@H](O)[C@H]4O)c3c(=O)c2O[C@@H]2O[C@@H](C)[C@H](O)[C@@H](O)[C@H]2O)cc1
REMARK SMILES IDX 7 1 32 2 30 3 31 4 29 5 17 6 16 7 11 8 10 9 9 10 8 11 6 12
REMARK SMILES IDX 3 13 4 14 45 15 5 16 44 17 2 18 1 19 33 20 34 21 35 22 42 23
REMARK SMILES IDX 36 24 40 25 38 26 37 27 43 28 41 30 39 32 18 34 19 35 20 36
REMARK SMILES IDX 27 37 21 38 25 39 23 40 22 41 28 42 26 44 24 46 12 48 13 49
REMARK SMILES IDX 14 50 15 51
REMARK H PARENT 43 29 41 31 39 33 28 43 26 45 24 47
ROOT
ATOM      1  C   UNL     1      -2.735   1.578   0.000  1.00  0.00     0.180 A 
ATOM      2  C   UNL     1      -2.200   0.176   0.000  1.00  0.00     0.214 A 
ATOM      3  C   UNL     1      -0.719  -0.060   0.000  1.00  0.00     0.239 A 
ATOM      4  O   UNL     1      -0.183  -1.462   0.000  1.00  0.00    -0.285 OA
ATOM      5  C   UNL     1       0.227   1.104   0.000  1.00  0.00     0.111 A 
ATOM      6  C   UNL     1       1.708   0.867   0.000  1.00  0.00     0.141 A 
ATOM      7  C   UNL     1       2.654   2.031   0.000  1.00  0.00     0.094 A 
ATOM      8  C   UNL     1       2.119   3.432   0.000  1.00  0.00     0.138 A 
ATOM      9  C   UNL     1       0.638   3.669   0.000  1.00  0.00     0.095 A 
ATOM     10  C   UNL     1      -0.308   2.505   0.000  1.00  0.00     0.146 A 
ATOM     11  O   UNL     1      -1.789   2.742   0.000  1.00  0.00    -0.452 OA
ENDROOT
BRANCH   1  12
ATOM     12  C   UNL     1      -4.216   1.815   0.000  1.00  0.00     0.021 A 
ATOM     13  C   UNL     1      -7.179   2.288   0.000  1.00  0.00     0.118 A 
ATOM     14  C   UNL     1      -6.233   3.453   0.000  1.00  0.00     0.047 A 
ATOM     15  C   UNL     1      -6.643   0.887   0.000  1.00  0.00     0.047 A 
ATOM     16  C   UNL     1      -4.752   3.216   0.000  1.00  0.00     0.016 A 
ATOM     17  C   UNL     1      -5.162   0.650   0.000  1.00  0.00     0.016 A 
BRANCH  13  18
ATOM     18  O   UNL     1      -8.660   2.525   0.000  1.00  0.00    -0.497 OA
ATOM     19  C   UNL     1      -9.195   3.927   0.000  1.00  0.00     0.278 C 
ENDBRANCH  13  18
ENDBRANCH   1  12
BRANCH   2  20
ATOM     20  O   UNL     1      -3.146  -0.988   0.000  1.00  0.00    -0.454 OA
BRANCH  20  21
ATOM     21  C   UNL     1      -2.610  -2.389   0.000  1.00  0.00     0.339 C 
ATOM     22  O   UNL     1      -1.129  -2.626   0.000  1.00  0.00    -0.335 OA
ATOM     23  C   UNL     1      -3.556  -3.553   0.000  1.00  0.00     0.214 C 
ATOM     24  C   UNL     1      -0.594  -4.027   0.000  1.00  0.00     0.151 C 
ATOM     25  C   UNL     1      -3.021  -4.955   0.000  1.00  0.00     0.180 C 
ATOM     26  C   UNL     1      -1.539  -5.191   0.000  1.00  0.00     0.174 C 
ATOM     27  C   UNL     1       0.888  -4.264   0.000  1.00  0.00     0.042 C 
BRANCH  23  28
ATOM     28  O   UNL     1      -5.037  -3.316   0.000  1.00  0.00    -0.384 OA
ATOM     29  H   UNL     1       0.000   0.000   0.000  1.00  0.00     0.211 HD
ENDBRANCH  23  28
BRANCH  25  30
ATOM     30  O   UNL     1      -3.966  -6.119   0.000  1.00  0.00    -0.387 OA
ATOM     31  H   UNL     1       0.000   0.000   0.000  1.00  0.00     0.211 HD
ENDBRANCH  25  30
BRANCH  26  32
ATOM     32  O   UNL     1      -1.004  -6.593   0.000  1.00  0.00    -0.388 OA
ATOM     33  H   UNL     1       0.000   0.000   0.000  1.00  0.00     0.211 HD
ENDBRANCH  26  32
ENDBRANCH  20  21
ENDBRANCH   2  20
BRANCH   6  34
ATOM     34  O   UNL     1       2.244  -0.534   0.000  1.00  0.00    -0.461 OA
BRANCH  34  35
ATOM     35  C   UNL     1       3.725  -0.771   0.000  1.00  0.00     0.339 C 
ATOM     36  O   UNL     1       4.260  -2.172   0.000  1.00  0.00    -0.335 OA
ATOM     37  C   UNL     1       4.671   0.393   0.000  1.00  0.00     0.214 C 
ATOM     38  C   UNL     1       5.742  -2.409   0.000  1.00  0.00     0.151 C 
ATOM     39  C   UNL     1       6.152   0.156   0.000  1.00  0.00     0.180 C 
ATOM     40  C   UNL     1       6.687  -1.245   0.000  1.00  0.00     0.174 C 
ATOM     41  C   UNL     1       6.277  -3.811   0.000  1.00  0.00     0.042 C 
BRANCH  37  42
ATOM     42  O   UNL     1       4.135   1.794   0.000  1.00  0.00    -0.384 OA
ATOM     43  H   UNL     1       0.000   0.000   0.000  1.00  0.00     0.211 HD
ENDBRANCH  37  42
BRANCH  39  44
ATOM     44  O   UNL     1       7.098   1.320   0.000  1.00  0.00    -0.387 OA
ATOM     45  H   UNL     1       0.000   0.000   0.000  1.00  0.00     0.211 HD
ENDBRANCH  39  44
BRANCH  40  46
ATOM     46  O   UNL     1       8.168  -1.482   0.000  1.00  0.00    -0.388 OA
ATOM     47  H   UNL     1       0.000   0.000   0.000  1.00  0.00     0.211 HD
ENDBRANCH  40  46
ENDBRANCH  34  35
ENDBRANCH   6  34
BRANCH   8  48
ATOM     48  O   UNL     1       3.064   4.597   0.000  1.00  0.00    -0.426 OA
BRANCH  48  49
ATOM     49  C   UNL     1       4.546   4.360   0.000  1.00  0.00     0.308 C 
ATOM     50  C   UNL     1       5.491   5.524   0.000  1.00  0.00     0.139 C 
ATOM     51  O   UNL     1       5.081   2.958   0.000  1.00  0.00    -0.252 OA
ENDBRANCH  48  49
ENDBRANCH   8  48
TORSDOF 14
