REMARK SMILES CC(=O)OCC1=CO[C@@H](OC(C)=O)[C@H]2[C@@H]1CC[C@@H]2C
REMARK SMILES IDX 6 1 7 2 8 3 9 4 14 5 15 6 16 7 17 8 18 9 19 10 5 11 4 12
REMARK SMILES IDX 2 13 1 14 3 15 10 16 11 17 12 18 13 19
REMARK H PARENT
ROOT
ATOM      1  C   UNL     1       1.168  -0.048   0.000  1.00  0.00     0.005 C 
ATOM      2  C   UNL     1       0.586   1.334   0.000  1.00  0.00     0.194 C 
ATOM      3  O   UNL     1      -0.902   1.521   0.000  1.00  0.00    -0.462 OA
ATOM      4  C   UNL     1      -1.808   0.326   0.000  1.00  0.00     0.369 C 
ATOM      5  C   UNL     1      -1.226  -1.057   0.000  1.00  0.00     0.081 C 
ATOM      6  C   UNL     1       0.262  -1.244   0.000  1.00  0.00     0.032 C 
ATOM      7  C   UNL     1       0.544  -2.717   0.000  1.00  0.00     0.009 C 
ATOM      8  C   UNL     1      -0.769  -3.441   0.000  1.00  0.00     0.004 C 
ATOM      9  C   UNL     1      -1.864  -2.414   0.000  1.00  0.00    -0.003 C 
ATOM     10  C   UNL     1      -3.337  -2.697   0.000  1.00  0.00     0.008 C 
ENDROOT
BRANCH   1  11
ATOM     11  C   UNL     1       2.657  -0.235   0.000  1.00  0.00     0.267 C 
BRANCH  11  12
ATOM     12  O   UNL     1       3.563   0.960   0.000  1.00  0.00    -0.461 OA
BRANCH  12  13
ATOM     13  C   UNL     1       5.051   0.773   0.000  1.00  0.00     0.302 C 
ATOM     14  C   UNL     1       5.957   1.969   0.000  1.00  0.00     0.139 C 
ATOM     15  O   UNL     1       5.633  -0.609   0.000  1.00  0.00    -0.253 OA
ENDBRANCH  12  13
ENDBRANCH  11  12
ENDBRANCH   1  11
BRANCH   4  16
ATOM     16  O   UNL     1      -3.297   0.512   0.000  1.00  0.00    -0.425 OA
BRANCH  16  17
ATOM     17  C   UNL     1      -3.879   1.895   0.000  1.00  0.00     0.305 C 
ATOM     18  C   UNL     1      -5.367   2.082   0.000  1.00  0.00     0.139 C 
ATOM     19  O   UNL     1      -2.973   3.090   0.000  1.00  0.00    -0.253 OA
ENDBRANCH  16  17
ENDBRANCH   4  16
TORSDOF 5
