REMARK SMILES CC(=O)O[C@@H]1[C@@H](O)[C@H](C)O[C@@H](Oc2cc3c(=O)oc4c(O)c(O)cc5c(=O)oc(c2O)c3c45)[C@@H]1O
REMARK SMILES IDX 5 1 6 2 8 3 9 4 10 5 11 6 34 7 4 8 2 9 1 10 3 11 7 12 35 14
REMARK SMILES IDX 12 16 13 17 14 18 30 19 15 20 29 21 32 22 16 23 28 24 33 25
REMARK SMILES IDX 18 26 26 27 19 28 25 29 20 30 24 31 22 32 17 33 27 34 31 35
REMARK SMILES IDX 21 37 23 39
REMARK H PARENT 7 13 35 15 31 36 21 38 23 40
ROOT
ATOM      1  C   UNL     1      -4.248  -0.524   0.000  1.00  0.00     0.242 C 
ATOM      2  C   UNL     1      -5.581   0.164   0.000  1.00  0.00     0.187 C 
ATOM      3  C   UNL     1      -5.653   1.662   0.000  1.00  0.00     0.152 C 
ATOM      4  C   UNL     1      -6.986   2.349   0.000  1.00  0.00     0.042 C 
ATOM      5  O   UNL     1      -4.391   2.473   0.000  1.00  0.00    -0.335 OA
ATOM      6  C   UNL     1      -3.058   1.785   0.000  1.00  0.00     0.340 C 
ATOM      7  C   UNL     1      -2.986   0.287   0.000  1.00  0.00     0.226 C 
ENDROOT
BRANCH   1   8
ATOM      8  O   UNL     1      -4.177  -2.022   0.000  1.00  0.00    -0.457 OA
BRANCH   8   9
ATOM      9  C   UNL     1      -5.439  -2.833   0.000  1.00  0.00     0.303 C 
ATOM     10  C   UNL     1      -5.368  -4.331   0.000  1.00  0.00     0.139 C 
ATOM     11  O   UNL     1      -6.772  -2.145   0.000  1.00  0.00    -0.253 OA
ENDBRANCH   8   9
ENDBRANCH   1   8
BRANCH   2  12
ATOM     12  O   UNL     1      -6.843  -0.647   0.000  1.00  0.00    -0.386 OA
ATOM     13  H   UNL     1       0.000   0.000   0.000  1.00  0.00     0.211 HD
ENDBRANCH   2  12
BRANCH   7  14
ATOM     14  O   UNL     1      -1.653  -0.400   0.000  1.00  0.00    -0.383 OA
ATOM     15  H   UNL     1       0.000   0.000   0.000  1.00  0.00     0.211 HD
ENDBRANCH   7  14
BRANCH   6  16
ATOM     16  O   UNL     1      -1.796   2.596   0.000  1.00  0.00    -0.458 OA
BRANCH  16  17
ATOM     17  C   UNL     1      -0.462   1.909   0.000  1.00  0.00     0.169 A 
ATOM     18  C   UNL     1      -0.391   0.410   0.000  1.00  0.00     0.067 A 
ATOM     19  C   UNL     1       0.800   2.720   0.000  1.00  0.00     0.202 A 
ATOM     20  C   UNL     1       0.942  -0.277   0.000  1.00  0.00     0.076 A 
ATOM     21  C   UNL     1       2.133   2.032   0.000  1.00  0.00     0.185 A 
ATOM     22  C   UNL     1       2.204   0.534   0.000  1.00  0.00     0.048 A 
ATOM     23  C   UNL     1       1.013  -1.775   0.000  1.00  0.00     0.344 A 
ATOM     24  O   UNL     1       3.395   2.843   0.000  1.00  0.00    -0.418 OA
ATOM     25  C   UNL     1       3.537  -0.154   0.000  1.00  0.00     0.048 A 
ATOM     26  O   UNL     1       2.346  -2.463   0.000  1.00  0.00    -0.418 OA
ATOM     27  C   UNL     1       4.728   2.155   0.000  1.00  0.00     0.344 A 
ATOM     28  C   UNL     1       3.608  -1.652   0.000  1.00  0.00     0.185 A 
ATOM     29  C   UNL     1       4.799   0.657   0.000  1.00  0.00     0.076 A 
ATOM     30  C   UNL     1       4.942  -2.339   0.000  1.00  0.00     0.202 A 
ATOM     31  C   UNL     1       6.132  -0.030   0.000  1.00  0.00     0.066 A 
ATOM     32  C   UNL     1       6.204  -1.529   0.000  1.00  0.00     0.162 A 
ATOM     33  O   UNL     1      -0.249  -2.586   0.000  1.00  0.00    -0.246 OA
ATOM     34  O   UNL     1       5.990   2.966   0.000  1.00  0.00    -0.246 OA
BRANCH  19  35
ATOM     35  O   UNL     1       0.728   4.218   0.000  1.00  0.00    -0.502 OA
ATOM     36  H   UNL     1       0.000   0.000   0.000  1.00  0.00     0.293 HD
ENDBRANCH  19  35
BRANCH  30  37
ATOM     37  O   UNL     1       5.013  -3.838   0.000  1.00  0.00    -0.502 OA
ATOM     38  H   UNL     1       0.000   0.000   0.000  1.00  0.00     0.293 HD
ENDBRANCH  30  37
BRANCH  32  39
ATOM     39  O   UNL     1       7.537  -2.216   0.000  1.00  0.00    -0.504 OA
ATOM     40  H   UNL     1       0.000   0.000   0.000  1.00  0.00     0.293 HD
ENDBRANCH  32  39
ENDBRANCH  16  17
ENDBRANCH   6  16
TORSDOF 9
