REMARK SMILES CC(C)=CC(=O)C(O)[C@@H](C)[C@@H]1CC[C@]2(C)C3=CC[C@H]4C(C)(C)C(=O)CC[C@]4(C)[C@H]3CC[C@@]12C
REMARK SMILES IDX 5 1 6 2 4 3 2 4 1 5 3 6 7 7 8 8 9 10 10 11 11 12 12 13 32 14
REMARK SMILES IDX 13 15 31 16 14 17 30 18 16 19 29 20 17 21 27 22 18 23 26 24
REMARK SMILES IDX 19 25 25 26 20 27 23 28 33 29 15 30 28 31 21 32 22 33 24 34
REMARK H PARENT 8 9
ROOT
ATOM      1  C   UNL     1       5.311  -0.440   0.000  1.00  0.00     0.184 C 
ATOM      2  O   UNL     1       6.424   0.566   0.000  1.00  0.00    -0.292 OA
ENDROOT
BRANCH   1   3
ATOM      3  C   UNL     1       5.624  -1.906   0.000  1.00  0.00     0.049 C 
BRANCH   3   4
ATOM      4  C   UNL     1       7.052  -2.368   0.000  1.00  0.00    -0.073 C 
ATOM      5  C   UNL     1       7.365  -3.835   0.000  1.00  0.00     0.039 C 
ATOM      6  C   UNL     1       8.165  -1.363   0.000  1.00  0.00     0.039 C 
ENDBRANCH   3   4
ENDBRANCH   1   3
BRANCH   1   7
ATOM      7  C   UNL     1       3.883   0.022   0.000  1.00  0.00     0.188 C 
BRANCH   7   8
ATOM      8  O   UNL     1       2.770  -0.983   0.000  1.00  0.00    -0.385 OA
ATOM      9  H   UNL     1       0.000   0.000   0.000  1.00  0.00     0.211 HD
ENDBRANCH   7   8
BRANCH   7  10
ATOM     10  C   UNL     1       3.569   1.489   0.000  1.00  0.00     0.026 C 
ATOM     11  C   UNL     1       4.683   2.494   0.000  1.00  0.00     0.011 C 
BRANCH  10  12
ATOM     12  C   UNL     1       2.142   1.950   0.000  1.00  0.00     0.002 C 
ATOM     13  C   UNL     1       1.677   3.376   0.000  1.00  0.00     0.005 C 
ATOM     14  C   UNL     1       0.930   1.067   0.000  1.00  0.00    -0.020 C 
ATOM     15  C   UNL     1       0.177   3.374   0.000  1.00  0.00     0.012 C 
ATOM     16  C   UNL     1       0.775  -0.425   0.000  1.00  0.00     0.008 C 
ATOM     17  C   UNL     1      -0.285   1.947   0.000  1.00  0.00    -0.006 C 
ATOM     18  C   UNL     1      -0.594  -1.037   0.000  1.00  0.00     0.009 C 
ATOM     19  C   UNL     1      -1.654   1.335   0.000  1.00  0.00    -0.064 C 
ATOM     20  C   UNL     1      -1.809  -0.157   0.000  1.00  0.00     0.021 C 
ATOM     21  C   UNL     1      -2.869   2.215   0.000  1.00  0.00    -0.027 C 
ATOM     22  C   UNL     1      -3.179  -0.769   0.000  1.00  0.00    -0.022 C 
ATOM     23  C   UNL     1      -4.239   1.603   0.000  1.00  0.00     0.032 C 
ATOM     24  C   UNL     1      -3.333  -2.261   0.000  1.00  0.00     0.015 C 
ATOM     25  C   UNL     1      -4.393   0.111   0.000  1.00  0.00     0.012 C 
ATOM     26  C   UNL     1      -4.703  -2.873   0.000  1.00  0.00     0.077 C 
ATOM     27  C   UNL     1      -5.763  -0.501   0.000  1.00  0.00     0.027 C 
ATOM     28  C   UNL     1      -5.918  -1.993   0.000  1.00  0.00     0.138 C 
ATOM     29  C   UNL     1       2.230   0.319   0.000  1.00  0.00     0.012 C 
ATOM     30  C   UNL     1      -1.401   2.949   0.000  1.00  0.00     0.017 C 
ATOM     31  C   UNL     1      -1.964  -1.649   0.000  1.00  0.00     0.012 C 
ATOM     32  C   UNL     1      -7.259  -0.608   0.000  1.00  0.00     0.020 C 
ATOM     33  C   UNL     1      -6.128   0.954   0.000  1.00  0.00     0.020 C 
ATOM     34  O   UNL     1      -7.287  -2.605   0.000  1.00  0.00    -0.299 OA
ENDBRANCH  10  12
ENDBRANCH   7  10
ENDBRANCH   1   7
TORSDOF 6
