REMARK SMILES COc1ccc2oc3cc(O)c(O)c(OC)c3c(=O)c2c1O
REMARK SMILES IDX 3 1 4 2 5 3 6 4 7 5 8 6 9 7 10 8 12 9 14 10 17 11 18 12
REMARK SMILES IDX 19 13 20 14 21 15 2 16 1 17 22 18 15 20 16 21 13 22 11 24
REMARK H PARENT 22 19 13 23 11 25
ROOT
ATOM      1  C   UNL     1      -3.896   0.103   0.000  1.00  0.00     0.161 A 
ATOM      2  C   UNL     1      -3.830   1.602   0.000  1.00  0.00     0.054 A 
ATOM      3  C   UNL     1      -2.500   2.294   0.000  1.00  0.00     0.052 A 
ATOM      4  C   UNL     1      -1.235   1.488   0.000  1.00  0.00     0.142 A 
ATOM      5  O   UNL     1       0.096   2.180   0.000  1.00  0.00    -0.455 OA
ATOM      6  C   UNL     1       1.361   1.373   0.000  1.00  0.00     0.146 A 
ATOM      7  C   UNL     1       2.692   2.066   0.000  1.00  0.00     0.098 A 
ATOM      8  C   UNL     1       3.956   1.259   0.000  1.00  0.00     0.165 A 
ATOM      9  C   UNL     1       3.890  -0.239   0.000  1.00  0.00     0.201 A 
ATOM     10  C   UNL     1       2.560  -0.932   0.000  1.00  0.00     0.179 A 
ATOM     11  C   UNL     1       1.295  -0.125   0.000  1.00  0.00     0.112 A 
ATOM     12  C   UNL     1      -0.036  -0.817   0.000  1.00  0.00     0.208 A 
ATOM     13  O   UNL     1      -0.102  -2.316   0.000  1.00  0.00    -0.288 OA
ATOM     14  C   UNL     1      -1.301  -0.011   0.000  1.00  0.00     0.111 A 
ATOM     15  C   UNL     1      -2.631  -0.703   0.000  1.00  0.00     0.172 A 
ENDROOT
BRANCH   1  16
ATOM     16  O   UNL     1      -5.227  -0.589   0.000  1.00  0.00    -0.493 OA
ATOM     17  C   UNL     1      -6.492   0.217   0.000  1.00  0.00     0.278 C 
ENDBRANCH   1  16
BRANCH  15  18
ATOM     18  O   UNL     1      -2.697  -2.202   0.000  1.00  0.00    -0.504 OA
ATOM     19  H   UNL     1       0.000   0.000   0.000  1.00  0.00     0.293 HD
ENDBRANCH  15  18
BRANCH  10  20
ATOM     20  O   UNL     1       2.494  -2.430   0.000  1.00  0.00    -0.492 OA
ATOM     21  C   UNL     1       1.163  -3.122   0.000  1.00  0.00     0.278 C 
ENDBRANCH  10  20
BRANCH   9  22
ATOM     22  O   UNL     1       5.155  -1.046   0.000  1.00  0.00    -0.502 OA
ATOM     23  H   UNL     1       0.000   0.000   0.000  1.00  0.00     0.293 HD
ENDBRANCH   9  22
BRANCH   8  24
ATOM     24  O   UNL     1       5.287   1.951   0.000  1.00  0.00    -0.504 OA
ATOM     25  H   UNL     1       0.000   0.000   0.000  1.00  0.00     0.293 HD
ENDBRANCH   8  24
TORSDOF 5
