REMARK SMILES C[C@H]1[C@H](C)CC[C@]2(C(=O)O)CC[C@]3(C)C(=CC[C@@H]4[C@@]5(C)CCC(=O)C(C)(C)[C@@H]5CC[C@]43C)[C@H]12
REMARK SMILES IDX 8 1 9 2 7 3 2 4 3 5 33 6 5 7 15 8 6 9 13 10 16 11 11 12
REMARK SMILES IDX 12 13 31 14 17 15 30 16 18 17 29 18 19 19 28 20 21 21 25 22
REMARK SMILES IDX 22 23 23 24 1 25 4 26 14 27 32 28 20 29 26 30 27 31 24 32
REMARK SMILES IDX 10 33
REMARK H PARENT 10 34
ROOT
ATOM      1  C   UNL     1      -4.418   2.044   0.000  1.00  0.00     0.310 C 
ATOM      2  O   UNL     1      -5.918   2.063   0.000  1.00  0.00    -0.252 OA
ENDROOT
BRANCH   1   3
ATOM      3  C   UNL     1      -3.685   0.735   0.000  1.00  0.00     0.075 C 
ATOM      4  C   UNL     1      -3.718  -1.863   0.000  1.00  0.00    -0.003 C 
ATOM      5  C   UNL     1      -5.218  -1.843   0.000  1.00  0.00    -0.011 C 
ATOM      6  C   UNL     1      -2.952  -0.573   0.000  1.00  0.00     0.036 C 
ATOM      7  C   UNL     1      -5.951  -0.535   0.000  1.00  0.00     0.005 C 
ATOM      8  C   UNL     1      -1.452  -0.593   0.000  1.00  0.00    -0.063 C 
ATOM      9  C   UNL     1      -5.185   0.755   0.000  1.00  0.00     0.020 C 
ATOM     10  C   UNL     1      -0.685   0.697   0.000  1.00  0.00    -0.006 C 
ATOM     11  C   UNL     1      -0.719  -1.901   0.000  1.00  0.00    -0.027 C 
ATOM     12  C   UNL     1      -2.918   2.025   0.000  1.00  0.00     0.020 C 
ATOM     13  C   UNL     1      -1.418   2.005   0.000  1.00  0.00     0.013 C 
ATOM     14  C   UNL     1       0.815   0.677   0.000  1.00  0.00    -0.020 C 
ATOM     15  C   UNL     1       0.781  -1.921   0.000  1.00  0.00     0.032 C 
ATOM     16  C   UNL     1       1.582   1.966   0.000  1.00  0.00     0.008 C 
ATOM     17  C   UNL     1       1.548  -0.631   0.000  1.00  0.00     0.006 C 
ATOM     18  C   UNL     1       3.082   1.947   0.000  1.00  0.00     0.006 C 
ATOM     19  C   UNL     1       3.048  -0.651   0.000  1.00  0.00    -0.025 C 
ATOM     20  C   UNL     1       3.815   0.638   0.000  1.00  0.00     0.008 C 
ATOM     21  C   UNL     1       3.781  -1.959   0.000  1.00  0.00     0.015 C 
ATOM     22  C   UNL     1       5.314   0.619   0.000  1.00  0.00     0.027 C 
ATOM     23  C   UNL     1       5.281  -1.979   0.000  1.00  0.00     0.077 C 
ATOM     24  C   UNL     1       6.048  -0.690   0.000  1.00  0.00     0.138 C 
ATOM     25  C   UNL     1      -2.985  -3.171   0.000  1.00  0.00     0.008 C 
ATOM     26  C   UNL     1      -5.985  -3.132   0.000  1.00  0.00     0.008 C 
ATOM     27  C   UNL     1       0.048  -0.612   0.000  1.00  0.00     0.017 C 
ATOM     28  C   UNL     1       0.082   1.986   0.000  1.00  0.00     0.012 C 
ATOM     29  C   UNL     1       2.281  -1.940   0.000  1.00  0.00     0.012 C 
ATOM     30  C   UNL     1       5.073   2.099   0.000  1.00  0.00     0.020 C 
ATOM     31  C   UNL     1       6.731   1.114   0.000  1.00  0.00     0.020 C 
ATOM     32  O   UNL     1       7.548  -0.709   0.000  1.00  0.00    -0.299 OA
ENDBRANCH   1   3
BRANCH   1  33
ATOM     33  O   UNL     1      -3.651   3.333   0.000  1.00  0.00    -0.481 OA
ATOM     34  H   UNL     1       0.000   0.000   0.000  1.00  0.00     0.296 HD
ENDBRANCH   1  33
TORSDOF 2
