REMARK SMILES C=C(C)[C@H]1Cc2c(C)ccc(COC)c2C(=O)[C@@H]1O
REMARK SMILES IDX 4 1 5 2 6 3 7 4 8 5 9 6 10 7 11 8 15 9 16 10 17 11 18 12
REMARK SMILES IDX 2 13 1 14 3 15 19 16 12 18 13 19 14 20
REMARK H PARENT 19 17
ROOT
ATOM      1  C   UNL     1      -2.358   0.221   0.000  1.00  0.00     0.055 C 
ATOM      2  C   UNL     1      -1.733  -1.142   0.000  1.00  0.00     0.047 C 
ATOM      3  C   UNL     1      -0.239  -1.282   0.000  1.00  0.00    -0.033 A 
ATOM      4  C   UNL     1       0.386  -2.646   0.000  1.00  0.00    -0.047 A 
ATOM      5  C   UNL     1      -0.482  -3.869   0.000  1.00  0.00     0.044 C 
ATOM      6  C   UNL     1       1.880  -2.786   0.000  1.00  0.00     0.004 A 
ATOM      7  C   UNL     1       2.748  -1.562   0.000  1.00  0.00     0.007 A 
ATOM      8  C   UNL     1       2.122  -0.199   0.000  1.00  0.00    -0.011 A 
ATOM      9  C   UNL     1       0.629  -0.059   0.000  1.00  0.00     0.029 A 
ATOM     10  C   UNL     1       0.003   1.304   0.000  1.00  0.00     0.192 C 
ATOM     11  O   UNL     1       0.871   2.528   0.000  1.00  0.00    -0.291 OA
ATOM     12  C   UNL     1      -1.490   1.444   0.000  1.00  0.00     0.193 C 
ENDROOT
BRANCH   1  13
ATOM     13  C   UNL     1      -3.852   0.361   0.000  1.00  0.00    -0.074 C 
ATOM     14  C   UNL     1      -4.720  -0.862   0.000  1.00  0.00     0.008 C 
ATOM     15  C   UNL     1      -4.477   1.724   0.000  1.00  0.00     0.039 C 
ENDBRANCH   1  13
BRANCH  12  16
ATOM     16  O   UNL     1      -2.116   2.808   0.000  1.00  0.00    -0.384 OA
ATOM     17  H   UNL     1       0.000   0.000   0.000  1.00  0.00     0.211 HD
ENDBRANCH  12  16
BRANCH   8  18
ATOM     18  C   UNL     1       2.990   1.024   0.000  1.00  0.00     0.196 C 
BRANCH  18  19
ATOM     19  O   UNL     1       4.484   0.884   0.000  1.00  0.00    -0.380 OA
ATOM     20  C   UNL     1       5.352   2.108   0.000  1.00  0.00     0.195 C 
ENDBRANCH  18  19
ENDBRANCH   8  18
TORSDOF 4
