REMARK SMILES O=Cc1ccc(CO)o1
REMARK SMILES IDX 3 1 4 2 5 3 6 4 9 5 2 6 1 7 7 8 8 9
REMARK H PARENT 8 10
ROOT
ATOM      1  C   UNL     1       1.260   0.333   0.000  1.00  0.00     0.166 A 
ATOM      2  C   UNL     1       0.485   1.617   0.000  1.00  0.00     0.054 A 
ATOM      3  C   UNL     1      -0.976   1.277   0.000  1.00  0.00     0.049 A 
ATOM      4  C   UNL     1      -1.104  -0.218   0.000  1.00  0.00     0.130 A 
ATOM      5  O   UNL     1       0.278  -0.801   0.000  1.00  0.00    -0.456 OA
ENDROOT
BRANCH   1   6
ATOM      6  C   UNL     1       2.755   0.206   0.000  1.00  0.00     0.298 C 
ATOM      7  O   UNL     1       3.391  -1.152   0.000  1.00  0.00    -0.294 OA
ENDBRANCH   1   6
BRANCH   4   8
ATOM      8  C   UNL     1      -2.388  -0.993   0.000  1.00  0.00     0.231 C 
BRANCH   8   9
ATOM      9  O   UNL     1      -3.701  -0.269   0.000  1.00  0.00    -0.388 OA
ATOM     10  H   UNL     1       0.000   0.000   0.000  1.00  0.00     0.211 HD
ENDBRANCH   8   9
ENDBRANCH   4   8
TORSDOF 3
