REMARK SMILES COc1c(-c2ccc(O)c(O)c2)oc2cc(O)cc(O)c2c1=O
REMARK SMILES IDX 3 1 4 2 13 3 14 4 15 5 16 6 18 7 19 8 21 9 22 10 23 11 2 12
REMARK SMILES IDX 1 13 5 14 6 15 12 16 7 17 10 18 8 19 11 20 9 22 20 24 17 26
REMARK H PARENT 11 21 9 23 20 25 17 27
ROOT
ATOM      1  C   UNL     1       0.110   1.426   0.000  1.00  0.00     0.210 A 
ATOM      2  C   UNL     1      -0.529   0.069   0.000  1.00  0.00     0.180 A 
ATOM      3  O   UNL     1       0.326  -1.163   0.000  1.00  0.00    -0.452 OA
ATOM      4  C   UNL     1       1.821  -1.038   0.000  1.00  0.00     0.146 A 
ATOM      5  C   UNL     1       2.677  -2.270   0.000  1.00  0.00     0.094 A 
ATOM      6  C   UNL     1       4.172  -2.145   0.000  1.00  0.00     0.123 A 
ATOM      7  C   UNL     1       4.811  -0.788   0.000  1.00  0.00     0.093 A 
ATOM      8  C   UNL     1       3.955   0.444   0.000  1.00  0.00     0.134 A 
ATOM      9  C   UNL     1       2.460   0.319   0.000  1.00  0.00     0.111 A 
ATOM     10  C   UNL     1       1.605   1.551   0.000  1.00  0.00     0.239 A 
ATOM     11  O   UNL     1       2.244   2.908   0.000  1.00  0.00    -0.285 OA
ENDROOT
BRANCH   1  12
ATOM     12  O   UNL     1      -0.746   2.658   0.000  1.00  0.00    -0.490 OA
ATOM     13  C   UNL     1      -0.107   4.015   0.000  1.00  0.00     0.278 C 
ENDBRANCH   1  12
BRANCH   2  14
ATOM     14  C   UNL     1      -2.024  -0.056   0.000  1.00  0.00     0.025 A 
ATOM     15  C   UNL     1      -2.880   1.176   0.000  1.00  0.00     0.016 A 
ATOM     16  C   UNL     1      -2.663  -1.413   0.000  1.00  0.00     0.062 A 
ATOM     17  C   UNL     1      -4.375   1.051   0.000  1.00  0.00     0.051 A 
ATOM     18  C   UNL     1      -4.158  -1.538   0.000  1.00  0.00     0.158 A 
ATOM     19  C   UNL     1      -5.014  -0.306   0.000  1.00  0.00     0.157 A 
BRANCH  18  20
ATOM     20  O   UNL     1      -4.797  -2.895   0.000  1.00  0.00    -0.504 OA
ATOM     21  H   UNL     1       0.000   0.000   0.000  1.00  0.00     0.293 HD
ENDBRANCH  18  20
BRANCH  19  22
ATOM     22  O   UNL     1      -6.508  -0.431   0.000  1.00  0.00    -0.504 OA
ATOM     23  H   UNL     1       0.000   0.000   0.000  1.00  0.00     0.293 HD
ENDBRANCH  19  22
ENDBRANCH   2  14
BRANCH   8  24
ATOM     24  O   UNL     1       4.594   1.801   0.000  1.00  0.00    -0.507 OA
ATOM     25  H   UNL     1       0.000   0.000   0.000  1.00  0.00     0.293 HD
ENDBRANCH   8  24
BRANCH   6  26
ATOM     26  O   UNL     1       5.027  -3.377   0.000  1.00  0.00    -0.508 OA
ATOM     27  H   UNL     1       0.000   0.000   0.000  1.00  0.00     0.293 HD
ENDBRANCH   6  26
TORSDOF 6
