REMARK SMILES C=CC(C)=CCC=C(C)CCC=C(C)C
REMARK SMILES IDX 7 1 6 2 5 3 3 4 4 5 2 6 1 7 8 8 9 9 10 10 11 11 12 12 13 13
REMARK SMILES IDX 14 14 15 15
REMARK H PARENT
ROOT
ATOM      1  C   UNL     1       1.069   1.633   0.000  1.00  0.00    -0.024 C 
ENDROOT
BRANCH   1   2
ATOM      2  C   UNL     1       1.804   0.325   0.000  1.00  0.00     0.055 C 
BRANCH   2   3
ATOM      3  C   UNL     1       3.304   0.307   0.000  1.00  0.00    -0.020 C 
BRANCH   3   4
ATOM      4  C   UNL     1       4.038  -1.001   0.000  1.00  0.00    -0.055 C 
ATOM      5  C   UNL     1       3.273  -2.291   0.000  1.00  0.00     0.044 C 
BRANCH   4   6
ATOM      6  C   UNL     1       5.538  -1.019   0.000  1.00  0.00    -0.005 C 
ATOM      7  C   UNL     1       6.304   0.271   0.000  1.00  0.00     0.009 C 
ENDBRANCH   4   6
ENDBRANCH   3   4
ENDBRANCH   2   3
ENDBRANCH   1   2
BRANCH   1   8
ATOM      8  C   UNL     1      -0.430   1.651   0.000  1.00  0.00    -0.077 C 
ATOM      9  C   UNL     1      -1.165   2.959   0.000  1.00  0.00     0.039 C 
BRANCH   8  10
ATOM     10  C   UNL     1      -1.196   0.361   0.000  1.00  0.00     0.034 C 
BRANCH  10  11
ATOM     11  C   UNL     1      -2.696   0.379   0.000  1.00  0.00     0.032 C 
BRANCH  11  12
ATOM     12  C   UNL     1      -3.461  -0.911   0.000  1.00  0.00    -0.028 C 
BRANCH  12  13
ATOM     13  C   UNL     1      -4.961  -0.894   0.000  1.00  0.00    -0.080 C 
ATOM     14  C   UNL     1      -5.726  -2.184   0.000  1.00  0.00     0.039 C 
ATOM     15  C   UNL     1      -5.696   0.414   0.000  1.00  0.00     0.039 C 
ENDBRANCH  12  13
ENDBRANCH  11  12
ENDBRANCH  10  11
ENDBRANCH   8  10
ENDBRANCH   1   8
TORSDOF 9
