REMARK SMILES C=C1C(=O)O[C@@H]2C[C@H](C)C3=CC(=O)[C@@](C)(C[C@H](OC(=O)C(C)(O)CO)[C@@H]12)O3
REMARK SMILES IDX 18 1 17 2 26 3 2 4 3 5 5 6 6 7 1 8 4 9 7 10 8 11 9 12 16 14
REMARK SMILES IDX 14 15 12 16 27 17 11 18 10 19 15 20 13 21 19 23 20 24 21 25
REMARK SMILES IDX 22 26 23 27 24 29 25 30
REMARK H PARENT 23 28 25 31
REMARK Flexibility Score:   44.900
ROOT
ATOM      1  O   UNL     1      -1.601   0.652   0.000  1.00  0.00    -0.459 OA
ENDROOT
BRANCH   1   2
ATOM      2  C   UNL     1      -0.149   0.275   0.000  1.00  0.00     0.192 C 
BRANCH   2   3
ATOM      3  C   UNL     1       0.702   1.510   0.000  1.00  0.00     0.108 C 
ATOM      4  C   UNL     1      -0.124   2.761   0.000  1.00  0.00     0.041 C 
ATOM      5  C   UNL     1       0.811   3.934   0.000  1.00  0.00     0.334 C 
ATOM      6  O   UNL     1       2.216   3.407   0.000  1.00  0.00    -0.458 OA
ATOM      7  C   UNL     1       2.148   1.909   0.000  1.00  0.00     0.189 C 
ATOM      8  C   UNL     1      -1.623   2.829   0.000  1.00  0.00     0.021 C 
ATOM      9  O   UNL     1       0.412   5.380   0.000  1.00  0.00    -0.247 OA
BRANCH   7  10
ATOM     10  C   UNL     1       3.512   1.285   0.000  1.00  0.00     0.057 C 
BRANCH  10  11
ATOM     11  C   UNL     1       4.156  -0.070   0.000  1.00  0.00     0.056 CG0
ATOM     12  C   UNL     1       5.650   0.072   0.000  1.00  0.00     0.016 C 
ATOM     13  G   UNL     1       3.401  -1.626   0.000  1.00  0.00     0.000 G0
ENDBRANCH  10  11
ENDBRANCH   7  10
ENDBRANCH   2   3
BRANCH   2  14
ATOM     14  C   UNL     1      -0.007  -1.219   0.000  1.00  0.00     0.103 C 
BRANCH  14  15
ATOM     15  C   UNL     1       1.061  -2.272   0.000  1.00  0.00     0.171 C 
ATOM     16  C   UNL     1       1.888  -3.523   0.000  1.00  0.00     0.202 C 
ATOM     17  O   UNL     1       1.997  -1.099   0.000  1.00  0.00    -0.483 OA
ATOM     18  C   UNL     1       3.334  -3.124   0.000  1.00  0.00     0.093 C 
ATOM     19  C   UNL     1       3.401  -1.626   0.000  1.00  0.00     0.104 CG0
ATOM     20  C   UNL     1      -0.437  -2.204   0.000  1.00  0.00     0.066 C 
ATOM     21  O   UNL     1       1.361  -4.928   0.000  1.00  0.00    -0.290 OA
ATOM     22  G   UNL     1       4.156  -0.070   0.000  1.00  0.00     0.000 G0
ENDBRANCH  14  15
ENDBRANCH   2  14
ENDBRANCH   1   2
BRANCH   1  23
ATOM     23  C   UNL     1      -2.653  -0.416   0.000  1.00  0.00     0.340 C 
ATOM     24  O   UNL     1      -2.255  -1.863   0.000  1.00  0.00    -0.249 OA
BRANCH  23  25
ATOM     25  C   UNL     1      -4.105  -0.039   0.000  1.00  0.00     0.182 C 
ATOM     26  C   UNL     1      -3.728   1.413   0.000  1.00  0.00     0.057 C 
BRANCH  25  27
ATOM     27  O   UNL     1      -5.557   0.338   0.000  1.00  0.00    -0.377 OA
ATOM     28  H   UNL     1       0.000   0.000   0.000  1.00  0.00     0.212 HD
ENDBRANCH  25  27
BRANCH  25  29
ATOM     29  C   UNL     1      -4.483  -1.491   0.000  1.00  0.00     0.203 C 
BRANCH  29  30
ATOM     30  O   UNL     1      -5.929  -1.890   0.000  1.00  0.00    -0.393 OA
ATOM     31  H   UNL     1       0.000   0.000   0.000  1.00  0.00     0.210 HD
ENDBRANCH  29  30
ENDBRANCH  25  29
ENDBRANCH  23  25
ENDBRANCH   1  23
TORSDOF 6
