REMARK SMILES COc1c(C)c(O)cc2c1C(=O)[C@@H](O)[C@H](c1ccc(O)cc1)O2
REMARK SMILES IDX 3 1 4 2 5 3 6 4 8 5 9 6 10 7 11 8 12 9 13 10 15 11 23 12
REMARK SMILES IDX 2 13 1 14 7 15 14 17 16 19 17 20 22 21 18 22 21 23 19 24
REMARK SMILES IDX 20 25
REMARK H PARENT 7 16 14 18 20 26
ROOT
ATOM      1  C   UNL     1      -3.192  -0.513   0.000  1.00  0.00     0.140 A 
ATOM      2  C   UNL     1      -4.076   0.698   0.000  1.00  0.00     0.034 A 
ATOM      3  C   UNL     1      -5.568   0.538   0.000  1.00  0.00     0.052 C 
ATOM      4  C   UNL     1      -3.469   2.070   0.000  1.00  0.00     0.125 A 
ATOM      5  C   UNL     1      -1.978   2.230   0.000  1.00  0.00     0.094 A 
ATOM      6  C   UNL     1      -1.093   1.019   0.000  1.00  0.00     0.138 A 
ATOM      7  C   UNL     1      -1.700  -0.353   0.000  1.00  0.00     0.105 A 
ATOM      8  C   UNL     1      -0.816  -1.565   0.000  1.00  0.00     0.202 C 
ATOM      9  O   UNL     1      -1.423  -2.936   0.000  1.00  0.00    -0.291 OA
ATOM     10  C   UNL     1       0.675  -1.404   0.000  1.00  0.00     0.231 C 
ATOM     11  C   UNL     1       1.283  -0.033   0.000  1.00  0.00     0.240 C 
ATOM     12  O   UNL     1       0.398   1.179   0.000  1.00  0.00    -0.481 OA
ENDROOT
BRANCH   1  13
ATOM     13  O   UNL     1      -3.799  -1.885   0.000  1.00  0.00    -0.495 OA
ATOM     14  C   UNL     1      -5.290  -2.045   0.000  1.00  0.00     0.278 C 
ENDBRANCH   1  13
BRANCH   4  15
ATOM     15  O   UNL     1      -4.354   3.282   0.000  1.00  0.00    -0.507 OA
ATOM     16  H   UNL     1       0.000   0.000   0.000  1.00  0.00     0.293 HD
ENDBRANCH   4  15
BRANCH  10  17
ATOM     17  O   UNL     1       1.560  -2.616   0.000  1.00  0.00    -0.381 OA
ATOM     18  H   UNL     1       0.000   0.000   0.000  1.00  0.00     0.211 HD
ENDBRANCH  10  17
BRANCH  11  19
ATOM     19  C   UNL     1       2.774   0.128   0.000  1.00  0.00    -0.004 A 
ATOM     20  C   UNL     1       3.658  -1.084   0.000  1.00  0.00     0.011 A 
ATOM     21  C   UNL     1       3.381   1.499   0.000  1.00  0.00     0.011 A 
ATOM     22  C   UNL     1       5.150  -0.924   0.000  1.00  0.00     0.046 A 
ATOM     23  C   UNL     1       4.872   1.659   0.000  1.00  0.00     0.046 A 
ATOM     24  C   UNL     1       5.757   0.448   0.000  1.00  0.00     0.115 A 
BRANCH  24  25
ATOM     25  O   UNL     1       7.248   0.608   0.000  1.00  0.00    -0.508 OA
ATOM     26  H   UNL     1       0.000   0.000   0.000  1.00  0.00     0.293 HD
ENDBRANCH  24  25
ENDBRANCH  11  19
TORSDOF 5
