REMARK SMILES C/C1=C/[C@H]2[C@@H](CC/C(C)=C\CC1)C2(C)C
REMARK SMILES IDX 4 1 5 2 13 3 14 4 15 5 3 6 2 7 1 8 12 9 11 10 6 12 7 13 8 14
REMARK SMILES IDX 9 15 10 16
REMARK H PARENT
REMARK Flexibility Score:   15.900
ROOT
ATOM      1  C   UNL     1      -1.736   0.277   0.000  1.00  0.00     0.021 C 
ATOM      2  C   UNL     1      -1.362  -1.176   0.000  1.00  0.00     0.003 C 
ATOM      3  C   UNL     1      -2.807  -0.773   0.000  1.00  0.00    -0.025 C 
ATOM      4  C   UNL     1      -3.455  -2.126   0.000  1.00  0.00     0.012 C 
ATOM      5  C   UNL     1      -4.027   0.100   0.000  1.00  0.00     0.012 C 
ENDROOT
BRANCH   1   6
ATOM      6  C   UNL     1      -1.184   1.671   0.000  1.00  0.00    -0.024 C 
BRANCH   6   7
ATOM      7  C   UNL     1       0.083   2.475   0.000  1.00  0.00    -0.077 C 
ATOM      8  C   UNL     1      -0.291   3.928   0.000  1.00  0.00     0.039 C 
BRANCH   7   9
ATOM      9  C   UNL     1       1.580   2.382   0.000  1.00  0.00     0.034 C 
BRANCH   9  10
ATOM     10  C   UNL     1       2.736   1.426   0.000  1.00  0.00     0.032 CG0
ATOM     11  G   UNL     1       3.109  -0.027   0.000  1.00  0.00     0.000 G0
ENDBRANCH   9  10
ENDBRANCH   7   9
ENDBRANCH   6   7
ENDBRANCH   1   6
BRANCH   2  12
ATOM     12  C   UNL     1      -0.206  -2.132   0.000  1.00  0.00     0.009 C 
BRANCH  12  13
ATOM     13  C   UNL     1       1.291  -2.226   0.000  1.00  0.00     0.030 C 
BRANCH  13  14
ATOM     14  C   UNL     1       2.557  -1.422   0.000  1.00  0.00    -0.077 C 
ATOM     15  C   UNL     1       3.713  -2.378   0.000  1.00  0.00     0.039 C 
BRANCH  14  16
ATOM     16  C   UNL     1       3.109  -0.027   0.000  1.00  0.00    -0.028 CG0
ATOM     17  G   UNL     1       2.736   1.426   0.000  1.00  0.00     0.000 G0
ENDBRANCH  14  16
ENDBRANCH  13  14
ENDBRANCH  12  13
ENDBRANCH   2  12
TORSDOF 0
