REMARK SMILES Cc1ccc(C)c2c1CC[C@@H](C(C)(C)O)C2
REMARK SMILES IDX 12 1 13 2 14 3 11 4 2 5 3 6 8 7 4 8 7 9 9 10 5 11 16 12
REMARK SMILES IDX 10 13 1 14 6 15 15 16
REMARK H PARENT 15 17
ROOT
ATOM      1  C   UNL     1       3.191   0.054   0.000  1.00  0.00     0.062 C 
ATOM      2  C   UNL     1       2.899   1.526   0.000  1.00  0.00     0.042 C 
ATOM      3  C   UNL     1       3.483  -1.417   0.000  1.00  0.00     0.042 C 
ENDROOT
BRANCH   1   4
ATOM      4  C   UNL     1       1.720  -0.238   0.000  1.00  0.00     0.025 C 
ATOM      5  C   UNL     1      -2.694  -1.115   0.000  1.00  0.00    -0.048 A 
ATOM      6  C   UNL     1      -3.683   0.013   0.000  1.00  0.00     0.004 A 
ATOM      7  C   UNL     1      -1.223  -0.822   0.000  1.00  0.00    -0.042 A 
ATOM      8  C   UNL     1      -3.200   1.434   0.000  1.00  0.00     0.004 A 
ATOM      9  C   UNL     1      -0.740   0.598   0.000  1.00  0.00    -0.041 A 
ATOM     10  C   UNL     1      -0.234  -1.950   0.000  1.00  0.00     0.036 C 
ATOM     11  C   UNL     1      -1.729   1.726   0.000  1.00  0.00    -0.048 A 
ATOM     12  C   UNL     1       0.731   0.890   0.000  1.00  0.00     0.042 C 
ATOM     13  C   UNL     1       1.237  -1.658   0.000  1.00  0.00     0.011 C 
ATOM     14  C   UNL     1      -3.176  -2.535   0.000  1.00  0.00     0.044 C 
ATOM     15  C   UNL     1      -1.246   3.146   0.000  1.00  0.00     0.044 C 
ENDBRANCH   1   4
BRANCH   1  16
ATOM     16  O   UNL     1       4.662   0.347   0.000  1.00  0.00    -0.390 OA
ATOM     17  H   UNL     1       0.000   0.000   0.000  1.00  0.00     0.211 HD
ENDBRANCH   1  16
TORSDOF 2
