REMARK SMILES C#CCCCCCCCC[C@@H]1C[C@H](C[C@@H](O)CO)C(=O)O1
REMARK SMILES IDX 8 1 7 2 6 3 5 4 4 5 3 6 2 7 1 8 9 9 10 10 11 11 12 12 21 13
REMARK SMILES IDX 13 14 19 15 20 16 14 17 15 18 16 19 17 21 18 22
REMARK H PARENT 16 20 18 23
ROOT
ATOM      1  C   UNL     1      -2.036  -0.460   0.000  1.00  0.00     0.000 C 
ENDROOT
BRANCH   1   2
ATOM      2  C   UNL     1      -3.325   0.307   0.000  1.00  0.00     0.000 C 
BRANCH   2   3
ATOM      3  C   UNL     1      -4.634  -0.426   0.000  1.00  0.00     0.000 C 
BRANCH   3   4
ATOM      4  C   UNL     1      -5.923   0.342   0.000  1.00  0.00     0.001 C 
BRANCH   4   5
ATOM      5  C   UNL     1      -7.232  -0.391   0.000  1.00  0.00     0.013 C 
BRANCH   5   6
ATOM      6  C   UNL     1      -8.521   0.376   0.000  1.00  0.00     0.089 C 
BRANCH   6   7
ATOM      7  C   UNL     1      -9.830  -0.357   0.000  1.00  0.00    -0.107 C 
ATOM      8  C   UNL     1     -11.139  -1.089   0.000  1.00  0.00     0.004 C 
ENDBRANCH   6   7
ENDBRANCH   5   6
ENDBRANCH   4   5
ENDBRANCH   3   4
ENDBRANCH   2   3
ENDBRANCH   1   2
BRANCH   1   9
ATOM      9  C   UNL     1      -0.728   0.273   0.000  1.00  0.00     0.004 C 
BRANCH   9  10
ATOM     10  C   UNL     1       0.561  -0.494   0.000  1.00  0.00     0.045 C 
BRANCH  10  11
ATOM     11  C   UNL     1       1.870   0.238   0.000  1.00  0.00     0.177 C 
ATOM     12  C   UNL     1       3.232  -0.390   0.000  1.00  0.00     0.060 C 
ATOM     13  O   UNL     1       2.047   1.728   0.000  1.00  0.00    -0.462 OA
ATOM     14  C   UNL     1       4.251   0.712   0.000  1.00  0.00     0.105 C 
ATOM     15  C   UNL     1       3.518   2.020   0.000  1.00  0.00     0.309 C 
ATOM     16  O   UNL     1       4.146   3.382   0.000  1.00  0.00    -0.252 OA
BRANCH  14  17
ATOM     17  C   UNL     1       5.740   0.535   0.000  1.00  0.00     0.049 C 
BRANCH  17  18
ATOM     18  C   UNL     1       6.332  -0.843   0.000  1.00  0.00     0.140 C 
BRANCH  18  19
ATOM     19  O   UNL     1       5.435  -2.045   0.000  1.00  0.00    -0.391 OA
ATOM     20  H   UNL     1       0.000   0.000   0.000  1.00  0.00     0.211 HD
ENDBRANCH  18  19
BRANCH  18  21
ATOM     21  C   UNL     1       7.822  -1.020   0.000  1.00  0.00     0.187 C 
BRANCH  21  22
ATOM     22  O   UNL     1       8.414  -2.398   0.000  1.00  0.00    -0.394 OA
ATOM     23  H   UNL     1       0.000   0.000   0.000  1.00  0.00     0.210 HD
ENDBRANCH  21  22
ENDBRANCH  18  21
ENDBRANCH  17  18
ENDBRANCH  14  17
ENDBRANCH  10  11
ENDBRANCH   9  10
ENDBRANCH   1   9
TORSDOF 14
