REMARK SMILES COc1ccc(C=Cc2cc(OC)c(CC=C(C)C)c(OC)c2)cc1
REMARK SMILES IDX 9 1 10 2 11 3 14 4 20 5 23 6 8 7 7 8 6 9 3 10 4 11 25 12
REMARK SMILES IDX 5 13 24 14 2 15 1 16 12 17 13 18 21 19 22 20 15 21 16 22
REMARK SMILES IDX 17 23 18 24 19 25
REMARK H PARENT
ROOT
ATOM      1  C   UNL     1       0.119  -0.720   0.000  1.00  0.00    -0.018 A 
ATOM      2  C   UNL     1       0.972  -1.954   0.000  1.00  0.00     0.055 A 
ATOM      3  C   UNL     1       2.467  -1.832   0.000  1.00  0.00     0.126 A 
ATOM      4  C   UNL     1       3.109  -0.476   0.000  1.00  0.00     0.040 A 
ATOM      5  C   UNL     1       2.256   0.758   0.000  1.00  0.00     0.126 A 
ATOM      6  C   UNL     1       0.761   0.636   0.000  1.00  0.00     0.055 A 
ENDROOT
BRANCH   1   7
ATOM      7  C   UNL     1      -1.376  -0.842   0.000  1.00  0.00     0.009 C 
BRANCH   7   8
ATOM      8  C   UNL     1      -2.229   0.391   0.000  1.00  0.00     0.009 C 
BRANCH   8   9
ATOM      9  C   UNL     1      -3.724   0.269   0.000  1.00  0.00    -0.025 A 
ATOM     10  C   UNL     1      -6.714   0.025   0.000  1.00  0.00     0.118 A 
ATOM     11  C   UNL     1      -6.073   1.381   0.000  1.00  0.00     0.047 A 
ATOM     12  C   UNL     1      -5.861  -1.208   0.000  1.00  0.00     0.047 A 
ATOM     13  C   UNL     1      -4.577   1.503   0.000  1.00  0.00     0.012 A 
ATOM     14  C   UNL     1      -4.366  -1.086   0.000  1.00  0.00     0.012 A 
BRANCH  10  15
ATOM     15  O   UNL     1      -8.209  -0.097   0.000  1.00  0.00    -0.497 OA
ATOM     16  C   UNL     1      -9.063   1.137   0.000  1.00  0.00     0.278 C 
ENDBRANCH  10  15
ENDBRANCH   8   9
ENDBRANCH   7   8
ENDBRANCH   1   7
BRANCH   3  17
ATOM     17  O   UNL     1       3.321  -3.065   0.000  1.00  0.00    -0.496 OA
ATOM     18  C   UNL     1       2.679  -4.421   0.000  1.00  0.00     0.278 C 
ENDBRANCH   3  17
BRANCH   5  19
ATOM     19  O   UNL     1       2.898   2.114   0.000  1.00  0.00    -0.496 OA
ATOM     20  C   UNL     1       2.044   3.347   0.000  1.00  0.00     0.278 C 
ENDBRANCH   5  19
BRANCH   4  21
ATOM     21  C   UNL     1       4.604  -0.354   0.000  1.00  0.00     0.070 C 
BRANCH  21  22
ATOM     22  C   UNL     1       5.246   1.002   0.000  1.00  0.00    -0.023 C 
BRANCH  22  23
ATOM     23  C   UNL     1       6.741   1.124   0.000  1.00  0.00    -0.080 C 
ATOM     24  C   UNL     1       7.383   2.480   0.000  1.00  0.00     0.039 C 
ATOM     25  C   UNL     1       7.594  -0.110   0.000  1.00  0.00     0.039 C 
ENDBRANCH  22  23
ENDBRANCH  21  22
ENDBRANCH   4  21
TORSDOF 9
