REMARK SMILES COc1ccc(/C=C/C(=O)O[C@H]2[C@H](O[C@@H]3OC=C(C(=O)O)[C@H]4C[C@H](O)[C@H](C)[C@@H]34)O[C@H](CO)[C@@H](O)[C@@H]2O)cc1
REMARK SMILES IDX 11 1 9 2 10 3 8 4 7 5 6 6 3 7 4 8 38 9 5 10 37 11 2 12 1 13
REMARK SMILES IDX 12 14 13 15 35 16 29 17 33 18 30 19 14 20 15 21 16 22 28 23
REMARK SMILES IDX 17 24 26 25 22 26 18 27 24 28 23 29 27 30 19 31 20 32 21 33
REMARK SMILES IDX 25 35 36 37 34 39 31 41 32 42
REMARK H PARENT 21 34 25 36 36 38 34 40 32 43
ROOT
ATOM      1  O   UNL     1      -1.084  -1.002   0.000  1.00  0.00    -0.451 OA
ENDROOT
BRANCH   1   2
ATOM      2  C   UNL     1       0.048  -1.985   0.000  1.00  0.00     0.331 C 
ATOM      3  O   UNL     1      -0.238  -3.458   0.000  1.00  0.00    -0.247 OA
BRANCH   2   4
ATOM      4  C   UNL     1       1.466  -1.496   0.000  1.00  0.00     0.094 C 
BRANCH   4   5
ATOM      5  C   UNL     1       2.599  -2.480   0.000  1.00  0.00     0.015 C 
BRANCH   5   6
ATOM      6  C   UNL     1       4.017  -1.991   0.000  1.00  0.00    -0.025 A 
ATOM      7  C   UNL     1       6.853  -1.014   0.000  1.00  0.00     0.118 A 
ATOM      8  C   UNL     1       6.567  -2.486   0.000  1.00  0.00     0.047 A 
ATOM      9  C   UNL     1       5.721  -0.030   0.000  1.00  0.00     0.047 A 
ATOM     10  C   UNL     1       5.149  -2.975   0.000  1.00  0.00     0.012 A 
ATOM     11  C   UNL     1       4.302  -0.519   0.000  1.00  0.00     0.012 A 
BRANCH   7  12
ATOM     12  O   UNL     1       8.271  -0.525   0.000  1.00  0.00    -0.497 OA
ATOM     13  C   UNL     1       9.403  -1.509   0.000  1.00  0.00     0.278 C 
ENDBRANCH   7  12
ENDBRANCH   5   6
ENDBRANCH   4   5
ENDBRANCH   2   4
ENDBRANCH   1   2
BRANCH   1  14
ATOM     14  C   UNL     1      -2.502  -1.490   0.000  1.00  0.00     0.264 C 
ATOM     15  C   UNL     1      -3.635  -0.507   0.000  1.00  0.00     0.298 C 
ATOM     16  C   UNL     1      -2.788  -2.963   0.000  1.00  0.00     0.192 C 
ATOM     17  O   UNL     1      -5.053  -0.995   0.000  1.00  0.00    -0.340 OA
ATOM     18  C   UNL     1      -4.206  -3.452   0.000  1.00  0.00     0.178 C 
ATOM     19  C   UNL     1      -5.339  -2.468   0.000  1.00  0.00     0.178 C 
BRANCH  15  20
ATOM     20  O   UNL     1      -3.349   0.966   0.000  1.00  0.00    -0.309 OA
BRANCH  20  21
ATOM     21  C   UNL     1      -1.931   1.455   0.000  1.00  0.00     0.313 C 
ATOM     22  O   UNL     1      -0.799   0.471   0.000  1.00  0.00    -0.472 OA
ATOM     23  C   UNL     1      -1.645   2.927   0.000  1.00  0.00     0.072 C 
ATOM     24  C   UNL     1       0.620   0.960   0.000  1.00  0.00     0.202 C 
ATOM     25  C   UNL     1      -2.548   4.125   0.000  1.00  0.00     0.025 C 
ATOM     26  C   UNL     1      -0.227   3.416   0.000  1.00  0.00     0.042 C 
ATOM     27  C   UNL     1       0.905   2.432   0.000  1.00  0.00     0.075 C 
ATOM     28  C   UNL     1      -1.688   5.354   0.000  1.00  0.00     0.118 C 
ATOM     29  C   UNL     1      -0.254   4.916   0.000  1.00  0.00     0.041 C 
ATOM     30  C   UNL     1      -4.048   4.098   0.000  1.00  0.00     0.011 C 
BRANCH  27  31
ATOM     31  C   UNL     1       2.323   2.921   0.000  1.00  0.00     0.334 C 
ATOM     32  O   UNL     1       2.609   4.394   0.000  1.00  0.00    -0.247 OA
BRANCH  31  33
ATOM     33  O   UNL     1       3.456   1.937   0.000  1.00  0.00    -0.478 OA
ATOM     34  H   UNL     1       0.000   0.000   0.000  1.00  0.00     0.297 HD
ENDBRANCH  31  33
ENDBRANCH  27  31
BRANCH  28  35
ATOM     35  O   UNL     1      -2.177   6.772   0.000  1.00  0.00    -0.393 OA
ATOM     36  H   UNL     1       0.000   0.000   0.000  1.00  0.00     0.210 HD
ENDBRANCH  28  35
ENDBRANCH  20  21
ENDBRANCH  15  20
BRANCH  16  37
ATOM     37  O   UNL     1      -1.656  -3.947   0.000  1.00  0.00    -0.386 OA
ATOM     38  H   UNL     1       0.000   0.000   0.000  1.00  0.00     0.211 HD
ENDBRANCH  16  37
BRANCH  18  39
ATOM     39  O   UNL     1      -4.492  -4.924   0.000  1.00  0.00    -0.387 OA
ATOM     40  H   UNL     1       0.000   0.000   0.000  1.00  0.00     0.211 HD
ENDBRANCH  18  39
BRANCH  19  41
ATOM     41  C   UNL     1      -6.757  -2.957   0.000  1.00  0.00     0.191 C 
BRANCH  41  42
ATOM     42  O   UNL     1      -7.889  -1.973   0.000  1.00  0.00    -0.394 OA
ATOM     43  H   UNL     1       0.000   0.000   0.000  1.00  0.00     0.210 HD
ENDBRANCH  41  42
ENDBRANCH  19  41
ENDBRANCH   1  14
TORSDOF 15
