REMARK SMILES C=C1CCCC(COC(C)=O)CC[C@H](C(C)(C)O)CC1O
REMARK SMILES IDX 13 1 14 2 19 3 20 4 2 5 1 6 3 7 21 9 15 11 16 12 17 13 18 14
REMARK SMILES IDX 12 16 6 17 5 18 4 19 7 21 8 22 9 23 10 24 11 25
REMARK H PARENT 21 10 18 15
REMARK Flexibility Score:   24.900
ROOT
ATOM      1  C   UNL     1      -0.017   1.391   0.000  1.00  0.00     0.007 C 
ENDROOT
BRANCH   1   2
ATOM      2  C   UNL     1       1.482   1.434   0.000  1.00  0.00     0.023 C 
BRANCH   2   3
ATOM      3  C   UNL     1       2.720   0.587   0.000  1.00  0.00     0.043 C 
BRANCH   3   4
ATOM      4  C   UNL     1       3.224  -0.827   0.000  1.00  0.00     0.140 C 
BRANCH   4   5
ATOM      5  C   UNL     1       2.800  -2.265   0.000  1.00  0.00    -0.049 C 
ATOM      6  C   UNL     1       4.038  -3.113   0.000  1.00  0.00     0.010 C 
BRANCH   5   7
ATOM      7  C   UNL     1       1.612  -3.181   0.000  1.00  0.00     0.033 CG0
ATOM      8  G   UNL     1       0.113  -3.223   0.000  1.00  0.00     0.000 G0
ENDBRANCH   5   7
ENDBRANCH   4   5
BRANCH   4   9
ATOM      9  O   UNL     1       4.723  -0.784   0.000  1.00  0.00    -0.389 OA
ATOM     10  H   UNL     1       0.000   0.000   0.000  1.00  0.00     0.211 HD
ENDBRANCH   4   9
ENDBRANCH   3   4
ENDBRANCH   2   3
BRANCH   2  11
ATOM     11  C   UNL     1       1.905   2.873   0.000  1.00  0.00     0.062 C 
ATOM     12  C   UNL     1       0.466   3.296   0.000  1.00  0.00     0.042 C 
ATOM     13  C   UNL     1       3.345   2.450   0.000  1.00  0.00     0.042 C 
BRANCH  11  14
ATOM     14  O   UNL     1       2.329   4.312   0.000  1.00  0.00    -0.390 OA
ATOM     15  H   UNL     1       0.000   0.000   0.000  1.00  0.00     0.211 HD
ENDBRANCH  11  14
ENDBRANCH   2  11
ENDBRANCH   1   2
BRANCH   1  16
ATOM     16  C   UNL     1      -1.205   0.476   0.000  1.00  0.00     0.007 C 
BRANCH  16  17
ATOM     17  C   UNL     1      -1.629  -0.963   0.000  1.00  0.00     0.027 C 
BRANCH  17  18
ATOM     18  C   UNL     1      -1.125  -2.376   0.000  1.00  0.00     0.007 C 
BRANCH  18  19
ATOM     19  C   UNL     1       0.113  -3.223   0.000  1.00  0.00     0.005 CG0
ATOM     20  G   UNL     1       1.612  -3.181   0.000  1.00  0.00     0.000 G0
ENDBRANCH  18  19
ENDBRANCH  17  18
BRANCH  17  21
ATOM     21  C   UNL     1      -3.128  -1.005   0.000  1.00  0.00     0.236 C 
BRANCH  21  22
ATOM     22  O   UNL     1      -3.914   0.272   0.000  1.00  0.00    -0.466 OA
BRANCH  22  23
ATOM     23  C   UNL     1      -5.414   0.230   0.000  1.00  0.00     0.302 C 
ATOM     24  C   UNL     1      -6.200   1.507   0.000  1.00  0.00     0.139 C 
ATOM     25  O   UNL     1      -6.127  -1.090   0.000  1.00  0.00    -0.253 OA
ENDBRANCH  22  23
ENDBRANCH  21  22
ENDBRANCH  17  21
ENDBRANCH  16  17
ENDBRANCH   1  16
TORSDOF 6
