REMARK SMILES CCC(CC[C@@H](C)[C@H]1CC[C@H]2C3CC(=O)[C@@]4(O)CC(O)CC[C@]4(C)[C@H]3CC[C@]12C)C(C)C
REMARK SMILES IDX 5 1 4 2 3 3 2 4 1 5 30 6 31 7 32 8 6 9 7 10 8 11 9 12 28 13
REMARK SMILES IDX 10 14 27 15 11 16 26 17 12 18 25 19 13 20 23 21 14 22 22 23
REMARK SMILES IDX 16 24 21 25 18 26 19 27 29 28 24 29 15 30 17 31 20 33
REMARK H PARENT 17 32 20 34
ROOT
ATOM      1  C   UNL     1      -3.871  -0.680   0.000  1.00  0.00     0.004 C 
ENDROOT
BRANCH   1   2
ATOM      2  C   UNL     1      -5.339  -0.372   0.000  1.00  0.00     0.004 C 
BRANCH   2   3
ATOM      3  C   UNL     1      -5.807   1.053   0.000  1.00  0.00    -0.009 C 
BRANCH   3   4
ATOM      4  C   UNL     1      -7.275   1.360   0.000  1.00  0.00     0.000 C 
ATOM      5  C   UNL     1      -7.743   2.786   0.000  1.00  0.00     0.004 C 
ENDBRANCH   3   4
BRANCH   3   6
ATOM      6  C   UNL     1      -4.806   2.171   0.000  1.00  0.00    -0.014 C 
ATOM      7  C   UNL     1      -5.274   3.596   0.000  1.00  0.00     0.007 C 
ATOM      8  C   UNL     1      -3.338   1.863   0.000  1.00  0.00     0.007 C 
ENDBRANCH   3   6
ENDBRANCH   2   3
ENDBRANCH   1   2
BRANCH   1   9
ATOM      9  C   UNL     1      -3.403  -2.105   0.000  1.00  0.00    -0.011 C 
ATOM     10  C   UNL     1      -4.404  -3.223   0.000  1.00  0.00     0.008 C 
BRANCH   9  11
ATOM     11  C   UNL     1      -1.935  -2.413   0.000  1.00  0.00    -0.002 C 
ATOM     12  C   UNL     1      -1.321  -3.781   0.000  1.00  0.00     0.005 C 
ATOM     13  C   UNL     1      -0.823  -1.405   0.000  1.00  0.00    -0.026 C 
ATOM     14  C   UNL     1       0.171  -3.620   0.000  1.00  0.00     0.005 C 
ATOM     15  C   UNL     1      -0.828   0.095   0.000  1.00  0.00     0.007 C 
ATOM     16  C   UNL     1       0.478  -2.152   0.000  1.00  0.00    -0.001 C 
ATOM     17  C   UNL     1       0.469   0.848   0.000  1.00  0.00     0.005 C 
ATOM     18  C   UNL     1       1.775  -1.398   0.000  1.00  0.00     0.004 C 
ATOM     19  C   UNL     1       1.770   0.102   0.000  1.00  0.00     0.002 C 
ATOM     20  C   UNL     1       3.076  -2.144   0.000  1.00  0.00     0.083 C 
ATOM     21  C   UNL     1       3.067   0.856   0.000  1.00  0.00     0.007 C 
ATOM     22  C   UNL     1       4.373  -1.390   0.000  1.00  0.00     0.165 C 
ATOM     23  C   UNL     1       3.063   2.356   0.000  1.00  0.00     0.013 C 
ATOM     24  C   UNL     1       4.368   0.110   0.000  1.00  0.00     0.131 C 
ATOM     25  C   UNL     1       4.359   3.110   0.000  1.00  0.00     0.032 C 
ATOM     26  C   UNL     1       5.665   0.864   0.000  1.00  0.00     0.075 C 
ATOM     27  C   UNL     1       5.661   2.364   0.000  1.00  0.00     0.117 C 
ATOM     28  C   UNL     1      -2.195  -0.799   0.000  1.00  0.00     0.012 C 
ATOM     29  C   UNL     1       1.766   1.602   0.000  1.00  0.00     0.015 C 
ATOM     30  O   UNL     1       5.674  -2.136   0.000  1.00  0.00    -0.296 OA
BRANCH  24  31
ATOM     31  O   UNL     1       5.670  -0.636   0.000  1.00  0.00    -0.381 OA
ATOM     32  H   UNL     1       0.000   0.000   0.000  1.00  0.00     0.212 HD
ENDBRANCH  24  31
BRANCH  27  33
ATOM     33  O   UNL     1       6.957   3.118   0.000  1.00  0.00    -0.393 OA
ATOM     34  H   UNL     1       0.000   0.000   0.000  1.00  0.00     0.210 HD
ENDBRANCH  27  33
ENDBRANCH   9  11
ENDBRANCH   1   9
TORSDOF 8
