REMARK SMILES CCCCOC[C@]1(O)O[C@H](CO)[C@@H](O)[C@@H]1O
REMARK SMILES IDX 5 1 4 2 3 3 2 4 1 5 6 6 7 7 9 8 15 9 10 10 13 11 8 12 16 14
REMARK SMILES IDX 11 16 12 17 14 19
REMARK H PARENT 8 13 16 15 12 18 14 20
ROOT
ATOM      1  O   UNL     1       1.899  -0.209   0.000  1.00  0.00    -0.376 OA
ENDROOT
BRANCH   1   2
ATOM      2  C   UNL     1       3.153   0.614   0.000  1.00  0.00     0.160 C 
BRANCH   2   3
ATOM      3  C   UNL     1       4.493  -0.060   0.000  1.00  0.00     0.028 C 
BRANCH   3   4
ATOM      4  C   UNL     1       5.746   0.763   0.000  1.00  0.00    -0.001 C 
ATOM      5  C   UNL     1       7.086   0.089   0.000  1.00  0.00     0.004 C 
ENDBRANCH   3   4
ENDBRANCH   2   3
ENDBRANCH   1   2
BRANCH   1   6
ATOM      6  C   UNL     1       0.559   0.465   0.000  1.00  0.00     0.228 C 
BRANCH   6   7
ATOM      7  C   UNL     1      -0.695  -0.358   0.000  1.00  0.00     0.219 C 
ATOM      8  O   UNL     1      -1.383   0.975   0.000  1.00  0.00    -0.337 OA
ATOM      9  C   UNL     1      -1.750  -1.424   0.000  1.00  0.00     0.207 C 
ATOM     10  C   UNL     1      -2.863   0.732   0.000  1.00  0.00     0.179 C 
ATOM     11  C   UNL     1      -3.090  -0.750   0.000  1.00  0.00     0.180 C 
BRANCH   7  12
ATOM     12  O   UNL     1       0.255  -1.519   0.000  1.00  0.00    -0.362 OA
ATOM     13  H   UNL     1       0.000   0.000   0.000  1.00  0.00     0.214 HD
ENDBRANCH   7  12
BRANCH   9  14
ATOM     14  O   UNL     1      -1.508  -2.905   0.000  1.00  0.00    -0.385 OA
ATOM     15  H   UNL     1       0.000   0.000   0.000  1.00  0.00     0.211 HD
ENDBRANCH   9  14
BRANCH  10  16
ATOM     16  C   UNL     1      -3.929   1.788   0.000  1.00  0.00     0.191 C 
BRANCH  16  17
ATOM     17  O   UNL     1      -3.548   3.239   0.000  1.00  0.00    -0.394 OA
ATOM     18  H   UNL     1       0.000   0.000   0.000  1.00  0.00     0.210 HD
ENDBRANCH  16  17
ENDBRANCH  10  16
BRANCH  11  19
ATOM     19  O   UNL     1      -4.423  -1.438   0.000  1.00  0.00    -0.387 OA
ATOM     20  H   UNL     1       0.000   0.000   0.000  1.00  0.00     0.211 HD
ENDBRANCH  11  19
ENDBRANCH   6   7
ENDBRANCH   1   6
TORSDOF 10
