REMARK SMILES COc1cc([C@H]2O[C@@H](c3ccc(O)c(OC)c3)[C@H](C)[C@@H]2C)ccc1O
REMARK SMILES IDX 6 1 7 2 8 3 18 4 19 5 20 6 21 7 5 8 3 9 4 10 24 11 23 12
REMARK SMILES IDX 22 13 2 14 1 15 25 16 9 18 10 19 17 20 11 21 14 22 12 23
REMARK SMILES IDX 15 24 16 25 13 26
REMARK H PARENT 25 17 13 27
ROOT
ATOM      1  C   UNL     1       1.214   1.001   0.000  1.00  0.00     0.152 C 
ATOM      2  O   UNL     1       0.000   0.120   0.000  1.00  0.00    -0.365 OA
ATOM      3  C   UNL     1      -1.214   1.001   0.000  1.00  0.00     0.152 C 
ATOM      4  C   UNL     1      -0.750   2.428   0.000  1.00  0.00     0.025 C 
ATOM      5  C   UNL     1      -1.632   3.642   0.000  1.00  0.00     0.011 C 
ATOM      6  C   UNL     1       0.750   2.428   0.000  1.00  0.00     0.025 C 
ATOM      7  C   UNL     1       1.632   3.642   0.000  1.00  0.00     0.011 C 
ENDROOT
BRANCH   1   8
ATOM      8  C   UNL     1       2.640   0.538   0.000  1.00  0.00    -0.015 A 
ATOM      9  C   UNL     1       4.379  -1.393   0.000  1.00  0.00     0.160 A 
ATOM     10  C   UNL     1       2.952  -0.929   0.000  1.00  0.00     0.056 A 
ATOM     11  C   UNL     1       5.493  -0.389   0.000  1.00  0.00     0.157 A 
ATOM     12  C   UNL     1       5.181   1.078   0.000  1.00  0.00     0.050 A 
ATOM     13  C   UNL     1       3.755   1.542   0.000  1.00  0.00     0.010 A 
BRANCH   9  14
ATOM     14  O   UNL     1       4.690  -2.860   0.000  1.00  0.00    -0.493 OA
ATOM     15  C   UNL     1       3.576  -3.864   0.000  1.00  0.00     0.278 C 
ENDBRANCH   9  14
BRANCH  11  16
ATOM     16  O   UNL     1       6.920  -0.853   0.000  1.00  0.00    -0.504 OA
ATOM     17  H   UNL     1       0.000   0.000   0.000  1.00  0.00     0.293 HD
ENDBRANCH  11  16
ENDBRANCH   1   8
BRANCH   3  18
ATOM     18  C   UNL     1      -2.640   0.538   0.000  1.00  0.00    -0.015 A 
ATOM     19  C   UNL     1      -3.755   1.542   0.000  1.00  0.00     0.010 A 
ATOM     20  C   UNL     1      -2.952  -0.929   0.000  1.00  0.00     0.056 A 
ATOM     21  C   UNL     1      -5.181   1.078   0.000  1.00  0.00     0.050 A 
ATOM     22  C   UNL     1      -4.379  -1.393   0.000  1.00  0.00     0.160 A 
ATOM     23  C   UNL     1      -5.493  -0.389   0.000  1.00  0.00     0.157 A 
BRANCH  22  24
ATOM     24  O   UNL     1      -4.690  -2.860   0.000  1.00  0.00    -0.493 OA
ATOM     25  C   UNL     1      -3.576  -3.864   0.000  1.00  0.00     0.278 C 
ENDBRANCH  22  24
BRANCH  23  26
ATOM     26  O   UNL     1      -6.920  -0.853   0.000  1.00  0.00    -0.504 OA
ATOM     27  H   UNL     1       0.000   0.000   0.000  1.00  0.00     0.293 HD
ENDBRANCH  23  26
ENDBRANCH   3  18
TORSDOF 6
