REMARK SMILES COc1cc([C@H]2c3cc(O)c(OC)cc3C[C@@H](C)[C@@H]2C)ccc1O
REMARK SMILES IDX 6 1 7 2 8 3 9 4 11 5 14 6 15 7 16 8 17 9 18 10 19 11 20 12
REMARK SMILES IDX 5 13 3 14 4 15 23 16 22 17 21 18 2 19 1 20 24 21 10 23 12 25
REMARK SMILES IDX 13 26
REMARK H PARENT 24 22 10 24
ROOT
ATOM      1  C   UNL     1      -0.212   0.727   0.000  1.00  0.00     0.053 C 
ATOM      2  C   UNL     1       1.179   0.167   0.000  1.00  0.00    -0.033 A 
ATOM      3  C   UNL     1       1.389  -1.318   0.000  1.00  0.00     0.054 A 
ATOM      4  C   UNL     1       2.781  -1.879   0.000  1.00  0.00     0.157 A 
ATOM      5  C   UNL     1       3.962  -0.954   0.000  1.00  0.00     0.160 A 
ATOM      6  C   UNL     1       3.751   0.531   0.000  1.00  0.00     0.054 A 
ATOM      7  C   UNL     1       2.360   1.092   0.000  1.00  0.00    -0.040 A 
ATOM      8  C   UNL     1       2.150   2.577   0.000  1.00  0.00     0.039 C 
ATOM      9  C   UNL     1       0.758   3.137   0.000  1.00  0.00    -0.006 C 
ATOM     10  C   UNL     1       0.548   4.622   0.000  1.00  0.00     0.008 C 
ATOM     11  C   UNL     1      -0.423   2.213   0.000  1.00  0.00     0.001 C 
ATOM     12  C   UNL     1      -1.814   2.773   0.000  1.00  0.00     0.009 C 
ENDROOT
BRANCH   1  13
ATOM     13  C   UNL     1      -1.393  -0.197   0.000  1.00  0.00    -0.036 A 
ATOM     14  C   UNL     1      -3.966  -0.562   0.000  1.00  0.00     0.160 A 
ATOM     15  C   UNL     1      -2.785   0.363   0.000  1.00  0.00     0.054 A 
ATOM     16  C   UNL     1      -3.755  -2.047   0.000  1.00  0.00     0.157 A 
ATOM     17  C   UNL     1      -2.364  -2.607   0.000  1.00  0.00     0.050 A 
ATOM     18  C   UNL     1      -1.183  -1.683   0.000  1.00  0.00     0.008 A 
BRANCH  14  19
ATOM     19  O   UNL     1      -5.357  -0.002   0.000  1.00  0.00    -0.493 OA
ATOM     20  C   UNL     1      -5.568   1.484   0.000  1.00  0.00     0.278 C 
ENDBRANCH  14  19
BRANCH  16  21
ATOM     21  O   UNL     1      -4.936  -2.972   0.000  1.00  0.00    -0.504 OA
ATOM     22  H   UNL     1       0.000   0.000   0.000  1.00  0.00     0.293 HD
ENDBRANCH  16  21
ENDBRANCH   1  13
BRANCH   4  23
ATOM     23  O   UNL     1       2.991  -3.364   0.000  1.00  0.00    -0.504 OA
ATOM     24  H   UNL     1       0.000   0.000   0.000  1.00  0.00     0.293 HD
ENDBRANCH   4  23
BRANCH   5  25
ATOM     25  O   UNL     1       5.353  -1.514   0.000  1.00  0.00    -0.493 OA
ATOM     26  C   UNL     1       6.534  -0.589   0.000  1.00  0.00     0.278 C 
ENDBRANCH   5  25
TORSDOF 5
