REMARK SMILES C=C1[C@@H](C)[C@H]2[C@H](Cc3ccccc3)NC(=O)[C@]23[C@H](OC(C)=O)[C@@H]2O[C@H]2[C@@](C)(O)C(=O)[C@@H](C)C/C=C/[C@H]3[C@@H]1O
REMARK SMILES IDX 1 1 2 2 3 3 4 4 5 5 6 6 14 7 15 8 16 9 17 10 36 11 37 12
REMARK SMILES IDX 38 14 35 16 34 17 33 18 31 19 32 20 7 22 8 23 9 24 13 25
REMARK SMILES IDX 10 26 12 27 11 28 18 29 19 30 20 31 21 32 22 33 23 34 24 35
REMARK SMILES IDX 25 36 26 37 27 38 28 39 29 41 30 42
REMARK H PARENT 14 13 38 15 28 40
REMARK Flexibility Score:   23.900
ROOT
ATOM      1  C   UNL     1       0.312   5.977   0.000  1.00  0.00     0.011 C 
ATOM      2  C   UNL     1       0.081   4.495   0.000  1.00  0.00    -0.045 C 
ATOM      3  C   UNL     1       1.248   3.553   0.000  1.00  0.00     0.020 C 
ATOM      4  C   UNL     1       2.648   4.094   0.000  1.00  0.00     0.013 C 
ATOM      5  C   UNL     1       1.017   2.071   0.000  1.00  0.00     0.039 C 
ATOM      6  C   UNL     1       1.964   0.907   0.000  1.00  0.00     0.091 C 
ATOM      7  N   UNL     1       1.149  -0.352   0.000  1.00  0.00    -0.352 N 
ATOM      8  C   UNL     1      -0.300   0.033   0.000  1.00  0.00     0.231 C 
ATOM      9  O   UNL     1      -1.464  -0.914   0.000  1.00  0.00    -0.274 OA
ATOM     10  C   UNL     1      -0.382   1.530   0.000  1.00  0.00     0.103 C 
ATOM     11  C   UNL     1      -1.550   2.472   0.000  1.00  0.00     0.064 C 
ATOM     12  C   UNL     1      -1.318   3.954   0.000  1.00  0.00     0.148 C 
ATOM     13  H   UNL     1       0.000   0.000   0.000  1.00  0.00     0.163 HD
ENDROOT
BRANCH  12  14
ATOM     14  O   UNL     1      -2.486   4.896   0.000  1.00  0.00    -0.388 OA
ATOM     15  H   UNL     1       0.000   0.000   0.000  1.00  0.00     0.211 HD
ENDBRANCH  12  14
BRANCH  11  16
ATOM     16  C   UNL     1      -2.891   1.801   0.000  1.00  0.00    -0.024 C 
BRANCH  16  17
ATOM     17  C   UNL     1      -4.383   1.962   0.000  1.00  0.00    -0.030 C 
BRANCH  17  18
ATOM     18  C   UNL     1      -5.149   0.672   0.000  1.00  0.00     0.038 C 
BRANCH  18  19
ATOM     19  C   UNL     1      -5.095  -0.827   0.000  1.00  0.00     0.060 CG0
ATOM     20  C   UNL     1      -6.519  -1.301   0.000  1.00  0.00     0.016 C 
ATOM     21  G   UNL     1      -4.240  -2.060   0.000  1.00  0.00     0.000 G0
ENDBRANCH  18  19
ENDBRANCH  17  18
ENDBRANCH  16  17
ENDBRANCH  11  16
BRANCH   6  22
ATOM     22  C   UNL     1       3.461   0.989   0.000  1.00  0.00     0.060 C 
BRANCH  22  23
ATOM     23  C   UNL     1       4.281  -0.267   0.000  1.00  0.00    -0.046 A 
ATOM     24  C   UNL     1       3.603  -1.605   0.000  1.00  0.00     0.004 A 
ATOM     25  C   UNL     1       5.779  -0.185   0.000  1.00  0.00     0.004 A 
ATOM     26  C   UNL     1       4.423  -2.861   0.000  1.00  0.00     0.000 A 
ATOM     27  C   UNL     1       6.598  -1.442   0.000  1.00  0.00     0.000 A 
ATOM     28  C   UNL     1       5.920  -2.780   0.000  1.00  0.00     0.000 A 
ENDBRANCH  22  23
ENDBRANCH   6  22
BRANCH  10  29
ATOM     29  C   UNL     1      -0.608   0.082   0.000  1.00  0.00     0.224 C 
BRANCH  29  30
ATOM     30  O   UNL     1       1.590   0.160   0.000  1.00  0.00    -0.458 OA
BRANCH  30  31
ATOM     31  C   UNL     1       2.386  -1.111   0.000  1.00  0.00     0.303 C 
ATOM     32  C   UNL     1       3.853  -1.422   0.000  1.00  0.00     0.139 C 
ATOM     33  O   UNL     1       1.682  -2.436   0.000  1.00  0.00    -0.253 OA
ENDBRANCH  30  31
ENDBRANCH  29  30
BRANCH  29  34
ATOM     34  C   UNL     1      -0.280  -1.346   0.000  1.00  0.00     0.193 C 
ATOM     35  O   UNL     1       0.056  -2.808   0.000  1.00  0.00    -0.362 OA
ATOM     36  C   UNL     1      -1.378  -2.368   0.000  1.00  0.00     0.190 C 
BRANCH  36  37
ATOM     37  C   UNL     1      -2.854  -2.634   0.000  1.00  0.00     0.149 C 
ATOM     38  C   UNL     1      -2.120  -3.942   0.000  1.00  0.00     0.054 C 
BRANCH  37  39
ATOM     39  O   UNL     1      -3.850  -3.756   0.000  1.00  0.00    -0.379 OA
ATOM     40  H   UNL     1       0.000   0.000   0.000  1.00  0.00     0.212 HD
ENDBRANCH  37  39
BRANCH  37  41
ATOM     41  C   UNL     1      -4.240  -2.060   0.000  1.00  0.00     0.169 CG0
ATOM     42  O   UNL     1      -5.182  -3.228   0.000  1.00  0.00    -0.296 OA
ATOM     43  G   UNL     1      -5.095  -0.827   0.000  1.00  0.00     0.000 G0
ENDBRANCH  37  41
ENDBRANCH  36  37
ENDBRANCH  29  34
ENDBRANCH  10  29
TORSDOF 6
