REMARK SMILES COc1cc(C=O)cc(OC)c1O
REMARK SMILES IDX 3 1 4 2 5 3 8 4 9 5 12 6 2 7 1 8 13 9 6 11 7 12 10 13 11 14
REMARK H PARENT 13 10
ROOT
ATOM      1  C   UNL     1      -1.561  -0.012   0.000  1.00  0.00     0.165 A 
ATOM      2  C   UNL     1      -0.906   1.337   0.000  1.00  0.00     0.062 A 
ATOM      3  C   UNL     1       0.590   1.445   0.000  1.00  0.00     0.022 A 
ATOM      4  C   UNL     1       1.431   0.203   0.000  1.00  0.00     0.062 A 
ATOM      5  C   UNL     1       0.776  -1.147   0.000  1.00  0.00     0.165 A 
ATOM      6  C   UNL     1      -0.720  -1.254   0.000  1.00  0.00     0.200 A 
ENDROOT
BRANCH   1   7
ATOM      7  O   UNL     1      -3.057  -0.119   0.000  1.00  0.00    -0.493 OA
ATOM      8  C   UNL     1      -3.898   1.123   0.000  1.00  0.00     0.278 C 
ENDBRANCH   1   7
BRANCH   6   9
ATOM      9  O   UNL     1      -1.375  -2.603   0.000  1.00  0.00    -0.502 OA
ATOM     10  H   UNL     1       0.000   0.000   0.000  1.00  0.00     0.293 HD
ENDBRANCH   6   9
BRANCH   3  11
ATOM     11  C   UNL     1       1.245   2.794   0.000  1.00  0.00     0.260 C 
ATOM     12  O   UNL     1       2.741   2.902   0.000  1.00  0.00    -0.298 OA
ENDBRANCH   3  11
BRANCH   5  13
ATOM     13  O   UNL     1       1.617  -2.388   0.000  1.00  0.00    -0.493 OA
ATOM     14  C   UNL     1       3.114  -2.281   0.000  1.00  0.00     0.278 C 
ENDBRANCH   5  13
TORSDOF 4
