REMARK SMILES CC(C)=CCOc1cc2oc(=O)ccc2c2c1OCO2
REMARK SMILES IDX 5 1 4 2 2 3 1 4 3 5 6 6 7 7 8 8 17 9 9 10 16 11 18 12 15 13
REMARK SMILES IDX 10 14 20 15 19 16 14 17 11 18 13 19 12 20
REMARK H PARENT
ROOT
ATOM      1  C   UNL     1       3.032   0.070   0.000  1.00  0.00     0.257 C 
ENDROOT
BRANCH   1   2
ATOM      2  C   UNL     1       4.504  -0.216   0.000  1.00  0.00     0.012 C 
BRANCH   2   3
ATOM      3  C   UNL     1       5.488   0.915   0.000  1.00  0.00    -0.077 C 
ATOM      4  C   UNL     1       6.961   0.629   0.000  1.00  0.00     0.039 C 
ATOM      5  C   UNL     1       5.000   2.334   0.000  1.00  0.00     0.039 C 
ENDBRANCH   2   3
ENDBRANCH   1   2
BRANCH   1   6
ATOM      6  O   UNL     1       2.047  -1.062   0.000  1.00  0.00    -0.485 OA
BRANCH   6   7
ATOM      7  C   UNL     1       0.575  -0.775   0.000  1.00  0.00     0.169 A 
ATOM      8  C   UNL     1       0.087   0.643   0.000  1.00  0.00     0.098 A 
ATOM      9  C   UNL     1      -0.409  -1.907   0.000  1.00  0.00     0.208 A 
ATOM     10  C   UNL     1      -1.385   0.929   0.000  1.00  0.00     0.146 A 
ATOM     11  C   UNL     1      -1.882  -1.621   0.000  1.00  0.00     0.180 A 
ATOM     12  O   UNL     1      -0.227  -3.396   0.000  1.00  0.00    -0.450 OA
ATOM     13  C   UNL     1      -2.370  -0.202   0.000  1.00  0.00     0.064 A 
ATOM     14  O   UNL     1      -1.874   2.348   0.000  1.00  0.00    -0.422 OA
ATOM     15  O   UNL     1      -2.609  -2.933   0.000  1.00  0.00    -0.453 OA
ATOM     16  C   UNL     1      -1.586  -4.030   0.000  1.00  0.00     0.468 C 
ATOM     17  C   UNL     1      -3.842   0.084   0.000  1.00  0.00     0.023 A 
ATOM     18  C   UNL     1      -3.346   2.634   0.000  1.00  0.00     0.336 A 
ATOM     19  C   UNL     1      -4.330   1.502   0.000  1.00  0.00     0.095 A 
ATOM     20  O   UNL     1      -3.834   4.053   0.000  1.00  0.00    -0.246 OA
ENDBRANCH   6   7
ENDBRANCH   1   6
TORSDOF 4
