REMARK SMILES COc1cc(CCCO[C@@H]2O[C@H](CO)[C@@H](O)[C@H](O)[C@H]2O)cc2cc(-c3ccc4c(c3)OCO4)oc12
REMARK SMILES IDX 8 1 7 2 6 3 5 4 3 5 4 6 35 7 22 8 34 9 21 10 23 11 24 12
REMARK SMILES IDX 2 13 1 14 25 15 26 16 30 17 27 18 29 19 28 20 31 21 33 22
REMARK SMILES IDX 32 23 9 24 10 25 11 26 19 27 12 28 17 29 15 30 20 31 13 33
REMARK SMILES IDX 14 34 18 36 16 38
REMARK H PARENT 20 32 14 35 18 37 16 39
ROOT
ATOM      1  C   UNL     1       3.868   0.248   0.000  1.00  0.00     0.164 C 
ENDROOT
BRANCH   1   2
ATOM      2  C   UNL     1       2.492  -0.350   0.000  1.00  0.00     0.033 C 
BRANCH   2   3
ATOM      3  C   UNL     1       1.287   0.542   0.000  1.00  0.00     0.038 C 
BRANCH   3   4
ATOM      4  C   UNL     1      -0.089  -0.055   0.000  1.00  0.00    -0.043 A 
ATOM      5  C   UNL     1      -1.635  -2.144   0.000  1.00  0.00     0.162 A 
ATOM      6  C   UNL     1      -0.259  -1.546   0.000  1.00  0.00     0.054 A 
ATOM      7  C   UNL     1      -2.840  -1.251   0.000  1.00  0.00     0.176 A 
ATOM      8  C   UNL     1      -2.670   0.239   0.000  1.00  0.00     0.025 A 
ATOM      9  O   UNL     1      -4.310  -1.550   0.000  1.00  0.00    -0.452 OA
ATOM     10  C   UNL     1      -1.295   0.837   0.000  1.00  0.00     0.016 A 
ATOM     11  C   UNL     1      -4.035   0.861   0.000  1.00  0.00     0.060 A 
ATOM     12  C   UNL     1      -5.049  -0.244   0.000  1.00  0.00     0.135 A 
BRANCH   5  13
ATOM     13  O   UNL     1      -1.805  -3.634   0.000  1.00  0.00    -0.493 OA
ATOM     14  C   UNL     1      -0.599  -4.526   0.000  1.00  0.00     0.278 C 
ENDBRANCH   5  13
BRANCH  12  15
ATOM     15  C   UNL     1      -6.539  -0.074   0.000  1.00  0.00     0.021 A 
ATOM     16  C   UNL     1      -7.431  -1.280   0.000  1.00  0.00     0.016 A 
ATOM     17  C   UNL     1      -7.137   1.301   0.000  1.00  0.00     0.062 A 
ATOM     18  C   UNL     1      -8.922  -1.110   0.000  1.00  0.00     0.051 A 
ATOM     19  C   UNL     1      -8.627   1.471   0.000  1.00  0.00     0.166 A 
ATOM     20  C   UNL     1      -9.520   0.266   0.000  1.00  0.00     0.165 A 
ATOM     21  O   UNL     1      -9.498   2.692   0.000  1.00  0.00    -0.454 OA
ATOM     22  O   UNL     1     -10.942   0.742   0.000  1.00  0.00    -0.454 OA
ATOM     23  C   UNL     1     -10.929   2.242   0.000  1.00  0.00     0.468 C 
ENDBRANCH  12  15
ENDBRANCH   3   4
ENDBRANCH   2   3
ENDBRANCH   1   2
BRANCH   1  24
ATOM     24  O   UNL     1       5.074  -0.644   0.000  1.00  0.00    -0.350 OA
BRANCH  24  25
ATOM     25  C   UNL     1       6.449  -0.046   0.000  1.00  0.00     0.281 C 
ATOM     26  O   UNL     1       7.655  -0.939   0.000  1.00  0.00    -0.341 OA
ATOM     27  C   UNL     1       6.619   1.444   0.000  1.00  0.00     0.202 C 
ATOM     28  C   UNL     1       9.031  -0.341   0.000  1.00  0.00     0.178 C 
ATOM     29  C   UNL     1       7.995   2.042   0.000  1.00  0.00     0.179 C 
ATOM     30  C   UNL     1       9.201   1.149   0.000  1.00  0.00     0.177 C 
BRANCH  27  31
ATOM     31  O   UNL     1       5.414   2.336   0.000  1.00  0.00    -0.385 OA
ATOM     32  H   UNL     1       0.000   0.000   0.000  1.00  0.00     0.211 HD
ENDBRANCH  27  31
BRANCH  28  33
ATOM     33  C   UNL     1      10.236  -1.233   0.000  1.00  0.00     0.191 C 
BRANCH  33  34
ATOM     34  O   UNL     1      10.066  -2.724   0.000  1.00  0.00    -0.394 OA
ATOM     35  H   UNL     1       0.000   0.000   0.000  1.00  0.00     0.210 HD
ENDBRANCH  33  34
ENDBRANCH  28  33
BRANCH  29  36
ATOM     36  O   UNL     1       8.165   3.532   0.000  1.00  0.00    -0.387 OA
ATOM     37  H   UNL     1       0.000   0.000   0.000  1.00  0.00     0.211 HD
ENDBRANCH  29  36
BRANCH  30  38
ATOM     38  O   UNL     1      10.576   1.747   0.000  1.00  0.00    -0.387 OA
ATOM     39  H   UNL     1       0.000   0.000   0.000  1.00  0.00     0.211 HD
ENDBRANCH  30  38
ENDBRANCH  24  25
ENDBRANCH   1  24
TORSDOF 12
