REMARK SMILES COc1cc2cc(OC)c3occc3c2oc1=O
REMARK SMILES IDX 3 1 4 2 5 3 6 4 7 5 10 6 11 7 12 8 13 9 14 10 15 11 16 12
REMARK SMILES IDX 17 13 18 14 2 15 1 16 8 17 9 18
REMARK H PARENT
ROOT
ATOM      1  C   UNL     1       2.943  -0.220   0.000  1.00  0.00     0.205 A 
ATOM      2  C   UNL     1       1.808  -1.201   0.000  1.00  0.00     0.066 A 
ATOM      3  C   UNL     1       0.392  -0.708   0.000  1.00  0.00     0.026 A 
ATOM      4  C   UNL     1      -0.743  -1.689   0.000  1.00  0.00     0.062 A 
ATOM      5  C   UNL     1      -2.160  -1.196   0.000  1.00  0.00     0.162 A 
ATOM      6  C   UNL     1      -2.442   0.277   0.000  1.00  0.00     0.179 A 
ATOM      7  O   UNL     1      -3.725   1.053   0.000  1.00  0.00    -0.460 OA
ATOM      8  C   UNL     1      -3.384   2.514   0.000  1.00  0.00     0.197 A 
ATOM      9  C   UNL     1      -1.889   2.640   0.000  1.00  0.00     0.055 A 
ATOM     10  C   UNL     1      -1.307   1.258   0.000  1.00  0.00     0.068 A 
ATOM     11  C   UNL     1       0.110   0.765   0.000  1.00  0.00     0.150 A 
ATOM     12  O   UNL     1       1.245   1.746   0.000  1.00  0.00    -0.419 OA
ATOM     13  C   UNL     1       2.662   1.253   0.000  1.00  0.00     0.379 A 
ATOM     14  O   UNL     1       3.797   2.234   0.000  1.00  0.00    -0.242 OA
ENDROOT
BRANCH   1  15
ATOM     15  O   UNL     1       4.360  -0.713   0.000  1.00  0.00    -0.490 OA
ATOM     16  C   UNL     1       4.642  -2.186   0.000  1.00  0.00     0.278 C 
ENDBRANCH   1  15
BRANCH   5  17
ATOM     17  O   UNL     1      -3.295  -2.177   0.000  1.00  0.00    -0.493 OA
ATOM     18  C   UNL     1      -3.013  -3.650   0.000  1.00  0.00     0.278 C 
ENDBRANCH   5  17
TORSDOF 2
