REMARK SMILES C=CC1C(CC2=NCCc3c2[nH]c2ccccc32)C(C(=O)OC)=CO[C@H]1O[C@@H]1O[C@H](CO)[C@@H](O)[C@H](O)[C@H]1O
REMARK SMILES IDX 27 1 26 2 3 3 4 4 19 5 25 6 24 7 2 8 1 9 5 10 6 11 7 12
REMARK SMILES IDX 11 13 8 14 10 15 12 16 9 17 18 18 13 19 17 20 14 21 16 22
REMARK SMILES IDX 15 23 20 25 21 26 22 27 23 28 28 29 29 30 37 31 30 32 35 33
REMARK SMILES IDX 33 34 38 35 31 37 32 38 36 40 34 42
REMARK H PARENT 12 24 38 36 32 39 36 41 34 43
ROOT
ATOM      1  O   UNL     1      -2.718   1.008   0.000  1.00  0.00    -0.310 OA
ENDROOT
BRANCH   1   2
ATOM      2  C   UNL     1      -1.844  -0.212   0.000  1.00  0.00     0.316 C 
ATOM      3  C   UNL     1      -0.351  -0.065   0.000  1.00  0.00     0.089 C 
ATOM      4  C   UNL     1       0.522  -1.284   0.000  1.00  0.00     0.049 C 
ATOM      5  C   UNL     1      -0.097  -2.651   0.000  1.00  0.00     0.076 C 
ATOM      6  O   UNL     1      -2.463  -1.578   0.000  1.00  0.00    -0.471 OA
ATOM      7  C   UNL     1      -1.590  -2.797   0.000  1.00  0.00     0.202 C 
BRANCH   3   8
ATOM      8  C   UNL     1       0.268   1.301   0.000  1.00  0.00    -0.024 C 
ATOM      9  C   UNL     1      -0.606   2.521   0.000  1.00  0.00     0.004 C 
ENDBRANCH   3   8
BRANCH   4  10
ATOM     10  C   UNL     1       2.015  -1.138   0.000  1.00  0.00     0.067 C 
BRANCH  10  11
ATOM     11  C   UNL     1       2.634   0.229   0.000  1.00  0.00     0.059 C 
ATOM     12  N   UNL     1       1.761   1.448   0.000  1.00  0.00    -0.287 NA
ATOM     13  C   UNL     1       4.127   0.375   0.000  1.00  0.00     0.064 A 
ATOM     14  C   UNL     1       2.380   2.814   0.000  1.00  0.00     0.147 C 
ATOM     15  C   UNL     1       4.746   1.742   0.000  1.00  0.00    -0.011 A 
ATOM     16  N   UNL     1       5.235  -0.636   0.000  1.00  0.00    -0.353 N 
ATOM     17  C   UNL     1       3.873   2.961   0.000  1.00  0.00     0.062 C 
ATOM     18  C   UNL     1       6.237   1.575   0.000  1.00  0.00     0.003 A 
ATOM     19  C   UNL     1       6.539   0.105   0.000  1.00  0.00     0.046 A 
ATOM     20  C   UNL     1       7.359   2.571   0.000  1.00  0.00     0.010 A 
ATOM     21  C   UNL     1       7.963  -0.368   0.000  1.00  0.00     0.027 A 
ATOM     22  C   UNL     1       8.782   2.098   0.000  1.00  0.00     0.001 A 
ATOM     23  C   UNL     1       9.084   0.628   0.000  1.00  0.00     0.002 A 
ATOM     24  H   UNL     1       0.000   0.000   0.000  1.00  0.00     0.167 HD
ENDBRANCH  10  11
ENDBRANCH   4  10
BRANCH   5  25
ATOM     25  C   UNL     1       0.776  -3.870   0.000  1.00  0.00     0.337 C 
ATOM     26  O   UNL     1       2.269  -3.723   0.000  1.00  0.00    -0.246 OA
BRANCH  25  27
ATOM     27  O   UNL     1       0.157  -5.236   0.000  1.00  0.00    -0.466 OA
ATOM     28  C   UNL     1       1.030  -6.456   0.000  1.00  0.00     0.282 C 
ENDBRANCH  25  27
ENDBRANCH   5  25
ENDBRANCH   1   2
BRANCH   1  29
ATOM     29  C   UNL     1      -4.210   0.861   0.000  1.00  0.00     0.286 C 
ATOM     30  O   UNL     1      -5.084   2.080   0.000  1.00  0.00    -0.341 OA
ATOM     31  C   UNL     1      -4.830  -0.505   0.000  1.00  0.00     0.202 C 
ATOM     32  C   UNL     1      -6.577   1.934   0.000  1.00  0.00     0.178 C 
ATOM     33  C   UNL     1      -6.323  -0.652   0.000  1.00  0.00     0.179 C 
ATOM     34  C   UNL     1      -7.196   0.568   0.000  1.00  0.00     0.177 C 
BRANCH  31  35
ATOM     35  O   UNL     1      -3.956  -1.724   0.000  1.00  0.00    -0.385 OA
ATOM     36  H   UNL     1       0.000   0.000   0.000  1.00  0.00     0.211 HD
ENDBRANCH  31  35
BRANCH  32  37
ATOM     37  C   UNL     1      -7.450   3.153   0.000  1.00  0.00     0.191 C 
BRANCH  37  38
ATOM     38  O   UNL     1      -6.831   4.519   0.000  1.00  0.00    -0.394 OA
ATOM     39  H   UNL     1       0.000   0.000   0.000  1.00  0.00     0.210 HD
ENDBRANCH  37  38
ENDBRANCH  32  37
BRANCH  33  40
ATOM     40  O   UNL     1      -6.942  -2.018   0.000  1.00  0.00    -0.387 OA
ATOM     41  H   UNL     1       0.000   0.000   0.000  1.00  0.00     0.211 HD
ENDBRANCH  33  40
BRANCH  34  42
ATOM     42  O   UNL     1      -8.689   0.421   0.000  1.00  0.00    -0.387 OA
ATOM     43  H   UNL     1       0.000   0.000   0.000  1.00  0.00     0.211 HD
ENDBRANCH  34  42
ENDBRANCH   1  29
TORSDOF 12
