REMARK SMILES CC(=O)O[C@@H]1C[C@H]2C(C)(C)C(=O)C=C[C@]2(C)[C@H]2CC[C@]3(C)C(=CC(=O)[C@H]3c3ccoc3)[C@@]21C
REMARK SMILES IDX 4 1 2 2 1 3 3 4 5 5 6 6 32 7 7 8 22 9 17 10 8 11 15 12 20 13
REMARK SMILES IDX 23 14 18 15 11 16 14 17 19 18 26 19 24 20 13 21 33 22 9 23
REMARK SMILES IDX 10 24 16 25 21 26 12 27 25 28 27 29 31 30 28 31 30 32 29 33
REMARK H PARENT
ROOT
ATOM      1  O   UNL     1       0.815  -2.880   0.000  1.00  0.00    -0.462 OA
ENDROOT
BRANCH   1   2
ATOM      2  C   UNL     1       1.829  -3.985   0.000  1.00  0.00     0.302 C 
ATOM      3  C   UNL     1       1.378  -5.416   0.000  1.00  0.00     0.139 C 
ATOM      4  O   UNL     1       3.293  -3.660   0.000  1.00  0.00    -0.253 OA
ENDBRANCH   1   2
BRANCH   1   5
ATOM      5  C   UNL     1       1.265  -1.449   0.000  1.00  0.00     0.187 C 
ATOM      6  C   UNL     1       2.730  -1.124   0.000  1.00  0.00     0.051 C 
ATOM      7  C   UNL     1       0.252  -0.343   0.000  1.00  0.00     0.030 C 
ATOM      8  C   UNL     1       3.180   0.307   0.000  1.00  0.00     0.016 C 
ATOM      9  C   UNL     1      -1.213  -0.668   0.000  1.00  0.00    -0.050 C 
ATOM     10  C   UNL     1       0.702   1.087   0.000  1.00  0.00     0.013 C 
ATOM     11  C   UNL     1       4.645   0.632   0.000  1.00  0.00     0.031 C 
ATOM     12  C   UNL     1       2.167   1.413   0.000  1.00  0.00    -0.007 C 
ATOM     13  C   UNL     1      -2.226   0.437   0.000  1.00  0.00     0.004 C 
ATOM     14  C   UNL     1      -1.951  -1.974   0.000  1.00  0.00     0.048 C 
ATOM     15  C   UNL     1      -0.311   2.193   0.000  1.00  0.00     0.006 C 
ATOM     16  C   UNL     1       5.095   2.063   0.000  1.00  0.00     0.161 C 
ATOM     17  C   UNL     1       2.617   2.843   0.000  1.00  0.00    -0.016 C 
ATOM     18  C   UNL     1      -1.776   1.868   0.000  1.00  0.00     0.012 C 
ATOM     19  C   UNL     1      -3.591  -0.185   0.000  1.00  0.00     0.104 C 
ATOM     20  C   UNL     1      -3.421  -1.676   0.000  1.00  0.00     0.164 C 
ATOM     21  C   UNL     1       4.082   3.168   0.000  1.00  0.00     0.044 C 
ATOM     22  C   UNL     1      -0.199  -1.774   0.000  1.00  0.00     0.020 C 
ATOM     23  C   UNL     1       6.132   0.437   0.000  1.00  0.00     0.020 C 
ATOM     24  C   UNL     1       4.711  -0.866   0.000  1.00  0.00     0.020 C 
ATOM     25  C   UNL     1       1.153   2.518   0.000  1.00  0.00     0.016 C 
ATOM     26  C   UNL     1      -3.350   1.431   0.000  1.00  0.00     0.017 C 
ATOM     27  O   UNL     1       6.560   2.388   0.000  1.00  0.00    -0.294 OA
ATOM     28  O   UNL     1      -4.527  -2.689   0.000  1.00  0.00    -0.294 OA
BRANCH  19  29
ATOM     29  C   UNL     1      -4.897   0.553   0.000  1.00  0.00     0.002 A 
ATOM     30  C   UNL     1      -6.262  -0.070   0.000  1.00  0.00     0.199 A 
ATOM     31  C   UNL     1      -5.067   2.043   0.000  1.00  0.00     0.046 A 
ATOM     32  O   UNL     1      -7.275   1.036   0.000  1.00  0.00    -0.472 OA
ATOM     33  C   UNL     1      -6.537   2.342   0.000  1.00  0.00     0.195 A 
ENDBRANCH  19  29
ENDBRANCH   1   5
TORSDOF 3
