REMARK SMILES O=CC=Cc1ccc2c(c1)OCO2
REMARK SMILES IDX 3 1 2 2 1 3 4 4 5 5 6 6 10 7 7 8 9 9 8 10 11 11 13 12 12 13
REMARK H PARENT
ROOT
ATOM      1  C   UNL     1       3.219  -0.078   0.000  1.00  0.00     0.044 C 
ENDROOT
BRANCH   1   2
ATOM      2  C   UNL     1       4.616   0.469   0.000  1.00  0.00     0.252 C 
ATOM      3  O   UNL     1       5.788  -0.466   0.000  1.00  0.00    -0.299 OA
ENDBRANCH   1   2
BRANCH   1   4
ATOM      4  C   UNL     1       2.047   0.858   0.000  1.00  0.00     0.011 C 
BRANCH   4   5
ATOM      5  C   UNL     1       0.650   0.310   0.000  1.00  0.00    -0.022 A 
ATOM      6  C   UNL     1       0.426  -1.173   0.000  1.00  0.00     0.012 A 
ATOM      7  C   UNL     1      -0.522   1.246   0.000  1.00  0.00     0.058 A 
ATOM      8  C   UNL     1      -0.970  -1.720   0.000  1.00  0.00     0.051 A 
ATOM      9  C   UNL     1      -1.918   0.698   0.000  1.00  0.00     0.166 A 
ATOM     10  C   UNL     1      -2.143  -0.785   0.000  1.00  0.00     0.165 A 
ATOM     11  O   UNL     1      -3.260   1.370   0.000  1.00  0.00    -0.454 OA
ATOM     12  O   UNL     1      -3.622  -1.030   0.000  1.00  0.00    -0.454 OA
ATOM     13  C   UNL     1      -4.313   0.302   0.000  1.00  0.00     0.468 C 
ENDBRANCH   4   5
ENDBRANCH   1   4
TORSDOF 3
