REMARK SMILES CC1=CC=C2[C@@](C)(CC[C@@]3(C)[C@@H]4C[C@@H](C)C(=O)C[C@]4(C)CC[C@]23C)C1=CC(=O)O
REMARK SMILES IDX 26 1 25 2 2 3 3 4 4 5 6 6 5 7 8 8 23 9 9 10 22 11 10 12
REMARK SMILES IDX 21 13 12 14 19 15 13 16 18 17 14 18 16 19 1 20 7 21 24 22
REMARK SMILES IDX 11 23 20 24 15 25 17 26 27 27 28 28 29 29
REMARK H PARENT 29 30
ROOT
ATOM      1  C   UNL     1       4.199   1.471   0.000  1.00  0.00     0.098 C 
ENDROOT
BRANCH   1   2
ATOM      2  C   UNL     1       3.419   0.189   0.000  1.00  0.00    -0.028 C 
ATOM      3  C   UNL     1       4.139  -1.127   0.000  1.00  0.00    -0.047 C 
ATOM      4  C   UNL     1       3.359  -2.408   0.000  1.00  0.00     0.004 C 
ATOM      5  C   UNL     1       1.859  -2.373   0.000  1.00  0.00     0.001 C 
ATOM      6  C   UNL     1       1.919   0.224   0.000  1.00  0.00     0.015 C 
ATOM      7  C   UNL     1       1.139  -1.057   0.000  1.00  0.00    -0.053 C 
ATOM      8  C   UNL     1       1.200   1.540   0.000  1.00  0.00     0.016 C 
ATOM      9  C   UNL     1      -0.360  -1.022   0.000  1.00  0.00    -0.005 C 
ATOM     10  C   UNL     1      -0.300   1.575   0.000  1.00  0.00     0.009 C 
ATOM     11  C   UNL     1      -1.140  -2.303   0.000  1.00  0.00     0.012 C 
ATOM     12  C   UNL     1      -1.080   0.294   0.000  1.00  0.00    -0.020 C 
ATOM     13  C   UNL     1      -2.640  -2.269   0.000  1.00  0.00     0.008 C 
ATOM     14  C   UNL     1      -2.579   0.329   0.000  1.00  0.00     0.003 C 
ATOM     15  C   UNL     1      -3.359  -0.952   0.000  1.00  0.00    -0.022 C 
ATOM     16  C   UNL     1      -3.299   1.645   0.000  1.00  0.00     0.016 C 
ATOM     17  C   UNL     1      -4.859  -0.918   0.000  1.00  0.00     0.083 C 
ATOM     18  C   UNL     1      -4.798   1.680   0.000  1.00  0.00     0.053 C 
ATOM     19  C   UNL     1      -5.578   0.399   0.000  1.00  0.00     0.136 C 
ATOM     20  C   UNL     1       5.638  -1.162   0.000  1.00  0.00     0.044 C 
ATOM     21  C   UNL     1       2.700   1.506   0.000  1.00  0.00     0.021 C 
ATOM     22  C   UNL     1       0.359  -2.338   0.000  1.00  0.00     0.017 C 
ATOM     23  C   UNL     1      -1.799   1.610   0.000  1.00  0.00     0.012 C 
ATOM     24  C   UNL     1      -4.139  -2.234   0.000  1.00  0.00     0.012 C 
ATOM     25  C   UNL     1      -5.518   2.996   0.000  1.00  0.00     0.016 C 
ATOM     26  O   UNL     1      -7.078   0.433   0.000  1.00  0.00    -0.299 OA
ENDBRANCH   1   2
BRANCH   1  27
ATOM     27  C   UNL     1       5.699   1.436   0.000  1.00  0.00     0.328 C 
ATOM     28  O   UNL     1       6.418   0.120   0.000  1.00  0.00    -0.247 OA
BRANCH  27  29
ATOM     29  O   UNL     1       6.479   2.717   0.000  1.00  0.00    -0.478 OA
ATOM     30  H   UNL     1       0.000   0.000   0.000  1.00  0.00     0.297 HD
ENDBRANCH  27  29
ENDBRANCH   1  27
TORSDOF 3
