REMARK SMILES O=c1c(O[C@@H]2O[C@H](CO)[C@@H](O)[C@@H](O)[C@H]2O)c(-c2ccc(O)c(O)c2)oc2cc(O)cc(O)c12
REMARK SMILES IDX 4 1 3 2 2 3 33 4 16 5 31 6 26 7 25 8 30 9 27 10 28 11 1 12
REMARK SMILES IDX 17 13 18 14 24 15 19 16 22 17 20 18 23 19 21 21 32 23 29 25
REMARK SMILES IDX 5 27 6 28 14 29 7 30 12 31 10 32 15 33 8 35 9 36 13 38 11 40
REMARK H PARENT 23 20 21 22 32 24 29 26 15 34 9 37 13 39 11 41
ROOT
ATOM      1  O   UNL     1       0.116   1.284   0.000  1.00  0.00    -0.454 OA
ENDROOT
BRANCH   1   2
ATOM      2  C   UNL     1      -0.469  -0.098   0.000  1.00  0.00     0.214 A 
ATOM      3  C   UNL     1       0.435  -1.295   0.000  1.00  0.00     0.239 A 
ATOM      4  C   UNL     1      -0.150  -2.676   0.000  1.00  0.00     0.111 A 
ATOM      5  C   UNL     1      -1.958  -0.281   0.000  1.00  0.00     0.180 A 
ATOM      6  C   UNL     1       0.753  -3.873   0.000  1.00  0.00     0.134 A 
ATOM      7  C   UNL     1      -1.639  -2.860   0.000  1.00  0.00     0.146 A 
ATOM      8  O   UNL     1      -2.543  -1.663   0.000  1.00  0.00    -0.452 OA
ATOM      9  C   UNL     1       0.168  -5.255   0.000  1.00  0.00     0.093 A 
ATOM     10  C   UNL     1      -2.224  -4.241   0.000  1.00  0.00     0.094 A 
ATOM     11  C   UNL     1      -1.321  -5.438   0.000  1.00  0.00     0.123 A 
ATOM     12  O   UNL     1       1.923  -1.111   0.000  1.00  0.00    -0.285 OA
BRANCH   5  13
ATOM     13  C   UNL     1      -2.861   0.916   0.000  1.00  0.00     0.025 A 
ATOM     14  C   UNL     1      -2.276   2.297   0.000  1.00  0.00     0.016 A 
ATOM     15  C   UNL     1      -4.350   0.732   0.000  1.00  0.00     0.062 A 
ATOM     16  C   UNL     1      -3.179   3.494   0.000  1.00  0.00     0.051 A 
ATOM     17  C   UNL     1      -5.253   1.929   0.000  1.00  0.00     0.158 A 
ATOM     18  C   UNL     1      -4.668   3.311   0.000  1.00  0.00     0.157 A 
BRANCH  17  19
ATOM     19  O   UNL     1      -6.742   1.746   0.000  1.00  0.00    -0.504 OA
ATOM     20  H   UNL     1       0.000   0.000   0.000  1.00  0.00     0.293 HD
ENDBRANCH  17  19
BRANCH  18  21
ATOM     21  O   UNL     1      -5.572   4.508   0.000  1.00  0.00    -0.504 OA
ATOM     22  H   UNL     1       0.000   0.000   0.000  1.00  0.00     0.293 HD
ENDBRANCH  18  21
ENDBRANCH   5  13
BRANCH   6  23
ATOM     23  O   UNL     1       2.242  -3.689   0.000  1.00  0.00    -0.507 OA
ATOM     24  H   UNL     1       0.000   0.000   0.000  1.00  0.00     0.293 HD
ENDBRANCH   6  23
BRANCH  11  25
ATOM     25  O   UNL     1      -1.906  -6.819   0.000  1.00  0.00    -0.508 OA
ATOM     26  H   UNL     1       0.000   0.000   0.000  1.00  0.00     0.293 HD
ENDBRANCH  11  25
ENDBRANCH   1   2
BRANCH   1  27
ATOM     27  C   UNL     1       1.605   1.467   0.000  1.00  0.00     0.339 C 
ATOM     28  O   UNL     1       2.509   0.270   0.000  1.00  0.00    -0.332 OA
ATOM     29  C   UNL     1       2.190   2.849   0.000  1.00  0.00     0.214 C 
ATOM     30  C   UNL     1       3.997   0.454   0.000  1.00  0.00     0.179 C 
ATOM     31  C   UNL     1       3.679   3.032   0.000  1.00  0.00     0.180 C 
ATOM     32  C   UNL     1       4.582   1.835   0.000  1.00  0.00     0.177 C 
BRANCH  29  33
ATOM     33  O   UNL     1       1.287   4.046   0.000  1.00  0.00    -0.384 OA
ATOM     34  H   UNL     1       0.000   0.000   0.000  1.00  0.00     0.211 HD
ENDBRANCH  29  33
BRANCH  30  35
ATOM     35  C   UNL     1       4.901  -0.743   0.000  1.00  0.00     0.191 C 
BRANCH  35  36
ATOM     36  O   UNL     1       6.389  -0.560   0.000  1.00  0.00    -0.394 OA
ATOM     37  H   UNL     1       0.000   0.000   0.000  1.00  0.00     0.210 HD
ENDBRANCH  35  36
ENDBRANCH  30  35
BRANCH  31  38
ATOM     38  O   UNL     1       4.264   4.414   0.000  1.00  0.00    -0.387 OA
ATOM     39  H   UNL     1       0.000   0.000   0.000  1.00  0.00     0.211 HD
ENDBRANCH  31  38
BRANCH  32  40
ATOM     40  O   UNL     1       6.071   2.019   0.000  1.00  0.00    -0.387 OA
ATOM     41  H   UNL     1       0.000   0.000   0.000  1.00  0.00     0.211 HD
ENDBRANCH  32  40
ENDBRANCH   1  27
TORSDOF 12
