REMARK SMILES CC1(C)CC[C@]2(C(=O)O)CC[C@]3(C)C(=CCC4[C@@]5(C)C[C@@H](O)[C@H](O)[C@](C)(CO)C5CC[C@]43C)C2C1
REMARK SMILES IDX 1 1 2 2 3 3 4 4 5 5 6 6 10 7 11 8 12 9 13 10 14 11 15 12
REMARK SMILES IDX 16 13 17 14 18 15 19 16 20 17 21 18 23 19 25 20 26 21 29 22
REMARK SMILES IDX 30 23 31 24 32 25 33 26 34 27 35 28 7 29 8 30 9 31 27 33
REMARK SMILES IDX 28 34 22 36 24 38
REMARK H PARENT 9 32 28 35 22 37 24 39
ROOT
ATOM      1  C   UNL     1      -5.287  -3.300   0.000  1.00  0.00     0.011 C 
ATOM      2  C   UNL     1      -5.522  -1.818   0.000  1.00  0.00    -0.035 C 
ATOM      3  C   UNL     1      -6.941  -2.307   0.000  1.00  0.00     0.011 C 
ATOM      4  C   UNL     1      -6.250  -0.507   0.000  1.00  0.00     0.007 C 
ATOM      5  C   UNL     1      -5.478   0.779   0.000  1.00  0.00     0.020 C 
ATOM      6  C   UNL     1      -3.978   0.754   0.000  1.00  0.00     0.074 C 
ATOM      7  C   UNL     1      -3.206   2.040   0.000  1.00  0.00     0.020 C 
ATOM      8  C   UNL     1      -1.706   2.014   0.000  1.00  0.00     0.013 C 
ATOM      9  C   UNL     1      -0.979   0.702   0.000  1.00  0.00    -0.006 C 
ATOM     10  C   UNL     1      -0.251  -0.609   0.000  1.00  0.00     0.017 C 
ATOM     11  C   UNL     1      -1.751  -0.584   0.000  1.00  0.00    -0.063 C 
ATOM     12  C   UNL     1      -1.023  -1.895   0.000  1.00  0.00    -0.027 C 
ATOM     13  C   UNL     1       0.477  -1.921   0.000  1.00  0.00     0.032 C 
ATOM     14  C   UNL     1       1.249  -0.635   0.000  1.00  0.00     0.006 C 
ATOM     15  C   UNL     1       2.748  -0.661   0.000  1.00  0.00    -0.023 C 
ATOM     16  C   UNL     1       1.976  -1.947   0.000  1.00  0.00     0.012 C 
ATOM     17  C   UNL     1       3.476  -1.972   0.000  1.00  0.00     0.042 C 
ATOM     18  C   UNL     1       4.976  -1.998   0.000  1.00  0.00     0.144 C 
ATOM     19  C   UNL     1       5.748  -0.712   0.000  1.00  0.00     0.151 C 
ATOM     20  C   UNL     1       5.020   0.600   0.000  1.00  0.00     0.022 C 
ATOM     21  C   UNL     1       4.785   2.081   0.000  1.00  0.00     0.017 C 
ATOM     22  C   UNL     1       3.521   0.625   0.000  1.00  0.00     0.006 C 
ATOM     23  C   UNL     1       2.793   1.937   0.000  1.00  0.00     0.005 C 
ATOM     24  C   UNL     1       1.293   1.963   0.000  1.00  0.00     0.008 C 
ATOM     25  C   UNL     1       0.521   0.677   0.000  1.00  0.00    -0.020 C 
ATOM     26  C   UNL     1      -0.206   1.988   0.000  1.00  0.00     0.012 C 
ATOM     27  C   UNL     1      -3.251  -0.558   0.000  1.00  0.00     0.033 C 
ATOM     28  C   UNL     1      -4.023  -1.844   0.000  1.00  0.00     0.015 C 
ENDROOT
BRANCH   6  29
ATOM     29  C   UNL     1      -4.706   2.065   0.000  1.00  0.00     0.310 C 
ATOM     30  O   UNL     1      -6.206   2.091   0.000  1.00  0.00    -0.252 OA
BRANCH  29  31
ATOM     31  O   UNL     1      -3.934   3.351   0.000  1.00  0.00    -0.481 OA
ATOM     32  H   UNL     1       0.000   0.000   0.000  1.00  0.00     0.296 HD
ENDBRANCH  29  31
ENDBRANCH   6  29
BRANCH  20  33
ATOM     33  C   UNL     1       6.439   1.088   0.000  1.00  0.00     0.165 C 
BRANCH  33  34
ATOM     34  O   UNL     1       6.724   2.561   0.000  1.00  0.00    -0.396 OA
ATOM     35  H   UNL     1       0.000   0.000   0.000  1.00  0.00     0.210 HD
ENDBRANCH  33  34
ENDBRANCH  20  33
BRANCH  18  36
ATOM     36  O   UNL     1       5.704  -3.310   0.000  1.00  0.00    -0.390 OA
ATOM     37  H   UNL     1       0.000   0.000   0.000  1.00  0.00     0.211 HD
ENDBRANCH  18  36
BRANCH  19  38
ATOM     38  O   UNL     1       7.248  -0.738   0.000  1.00  0.00    -0.390 OA
ATOM     39  H   UNL     1       0.000   0.000   0.000  1.00  0.00     0.211 HD
ENDBRANCH  19  38
TORSDOF 6
