REMARK SMILES C[C@@H]1O[C@@H](Oc2c(-c3ccc(O)cc3)oc3cc(O)cc(O)c3c2=O)[C@H](O)[C@H](O)[C@H]1O
REMARK SMILES IDX 6 1 7 2 15 3 16 4 17 5 18 6 20 7 21 8 23 9 24 10 25 11 5 12
REMARK SMILES IDX 4 13 2 14 3 15 30 16 28 17 26 18 1 19 31 20 29 22 27 24 8 26
REMARK SMILES IDX 9 27 14 28 10 29 13 30 11 31 12 32 22 34 19 36
REMARK H PARENT 31 21 29 23 27 25 12 33 22 35 19 37
ROOT
ATOM      1  C   UNL     1       0.425  -0.232   0.000  1.00  0.00     0.214 A 
ATOM      2  C   UNL     1       1.741  -0.952   0.000  1.00  0.00     0.180 A 
ATOM      3  O   UNL     1       3.022  -0.172   0.000  1.00  0.00    -0.452 OA
ATOM      4  C   UNL     1       2.987   1.328   0.000  1.00  0.00     0.146 A 
ATOM      5  C   UNL     1       4.268   2.108   0.000  1.00  0.00     0.094 A 
ATOM      6  C   UNL     1       4.233   3.608   0.000  1.00  0.00     0.123 A 
ATOM      7  C   UNL     1       2.917   4.327   0.000  1.00  0.00     0.093 A 
ATOM      8  C   UNL     1       1.636   3.547   0.000  1.00  0.00     0.134 A 
ATOM      9  C   UNL     1       1.671   2.047   0.000  1.00  0.00     0.111 A 
ATOM     10  C   UNL     1       0.390   1.268   0.000  1.00  0.00     0.239 A 
ATOM     11  O   UNL     1      -0.926   1.987   0.000  1.00  0.00    -0.285 OA
ENDROOT
BRANCH   1  12
ATOM     12  O   UNL     1      -0.857  -1.012   0.000  1.00  0.00    -0.454 OA
BRANCH  12  13
ATOM     13  C   UNL     1      -2.173  -0.293   0.000  1.00  0.00     0.339 C 
ATOM     14  C   UNL     1      -3.524   1.927   0.000  1.00  0.00     0.151 C 
ATOM     15  O   UNL     1      -2.208   1.207   0.000  1.00  0.00    -0.335 OA
ATOM     16  C   UNL     1      -4.805   1.147   0.000  1.00  0.00     0.174 C 
ATOM     17  C   UNL     1      -4.770  -0.353   0.000  1.00  0.00     0.180 C 
ATOM     18  C   UNL     1      -3.454  -1.073   0.000  1.00  0.00     0.214 C 
ATOM     19  C   UNL     1      -3.559   3.426   0.000  1.00  0.00     0.042 C 
BRANCH  16  20
ATOM     20  O   UNL     1      -6.121   1.866   0.000  1.00  0.00    -0.388 OA
ATOM     21  H   UNL     1       0.000   0.000   0.000  1.00  0.00     0.211 HD
ENDBRANCH  16  20
BRANCH  17  22
ATOM     22  O   UNL     1      -6.051  -1.133   0.000  1.00  0.00    -0.387 OA
ATOM     23  H   UNL     1       0.000   0.000   0.000  1.00  0.00     0.211 HD
ENDBRANCH  17  22
BRANCH  18  24
ATOM     24  O   UNL     1      -3.419  -2.572   0.000  1.00  0.00    -0.384 OA
ATOM     25  H   UNL     1       0.000   0.000   0.000  1.00  0.00     0.211 HD
ENDBRANCH  18  24
ENDBRANCH  12  13
ENDBRANCH   1  12
BRANCH   2  26
ATOM     26  C   UNL     1       1.776  -2.451   0.000  1.00  0.00     0.021 A 
ATOM     27  C   UNL     1       0.494  -3.231   0.000  1.00  0.00     0.016 A 
ATOM     28  C   UNL     1       3.092  -3.171   0.000  1.00  0.00     0.016 A 
ATOM     29  C   UNL     1       0.529  -4.731   0.000  1.00  0.00     0.047 A 
ATOM     30  C   UNL     1       3.127  -4.670   0.000  1.00  0.00     0.047 A 
ATOM     31  C   UNL     1       1.845  -5.450   0.000  1.00  0.00     0.115 A 
BRANCH  31  32
ATOM     32  O   UNL     1       1.880  -6.950   0.000  1.00  0.00    -0.508 OA
ATOM     33  H   UNL     1       0.000   0.000   0.000  1.00  0.00     0.293 HD
ENDBRANCH  31  32
ENDBRANCH   2  26
BRANCH   8  34
ATOM     34  O   UNL     1       0.320   4.267   0.000  1.00  0.00    -0.507 OA
ATOM     35  H   UNL     1       0.000   0.000   0.000  1.00  0.00     0.293 HD
ENDBRANCH   8  34
BRANCH   6  36
ATOM     36  O   UNL     1       5.514   4.388   0.000  1.00  0.00    -0.508 OA
ATOM     37  H   UNL     1       0.000   0.000   0.000  1.00  0.00     0.293 HD
ENDBRANCH   6  36
TORSDOF 9
