REMARK SMILES C=C(CC[C@@H](C)[C@H]1CCC2C3CC=C4C[C@@H](OC(=O)CCCCCCCCCCCCCCC)CC[C@]4(C)C3C[C@@H](O)[C@@]21C)C(C)C
REMARK SMILES IDX 22 1 21 2 20 3 18 4 19 5 17 6 16 7 7 8 8 9 43 10 9 11 41 12
REMARK SMILES IDX 10 13 40 14 11 15 39 16 12 17 37 18 13 19 36 20 14 21 35 22
REMARK SMILES IDX 15 23 44 24 38 25 5 26 6 27 4 28 3 29 2 30 1 31 45 32 46 33
REMARK SMILES IDX 47 34 42 35 23 37 24 38 25 39 26 40 27 41 28 42 29 43 30 44
REMARK SMILES IDX 31 45 32 46 33 47 34 48
REMARK H PARENT 42 36
ROOT
ATOM      1  C   UNL     1       6.199   1.367   0.000  1.00  0.00     0.001 C 
ENDROOT
BRANCH   1   2
ATOM      2  C   UNL     1       4.816   0.786   0.000  1.00  0.00     0.012 C 
BRANCH   2   3
ATOM      3  C   UNL     1       3.621   1.693   0.000  1.00  0.00     0.123 C 
BRANCH   3   4
ATOM      4  C   UNL     1       2.239   1.112   0.000  1.00  0.00     0.306 C 
ATOM      5  O   UNL     1       2.050  -0.376   0.000  1.00  0.00    -0.252 OA
BRANCH   4   6
ATOM      6  O   UNL     1       1.044   2.019   0.000  1.00  0.00    -0.462 OA
BRANCH   6   7
ATOM      7  C   UNL     1      -0.339   1.438   0.000  1.00  0.00     0.180 C 
ATOM      8  C   UNL     1      -8.485  -2.323   0.000  1.00  0.00     0.001 C 
ATOM      9  C   UNL     1      -8.052  -3.759   0.000  1.00  0.00     0.005 C 
ATOM     10  C   UNL     1      -7.253  -1.467   0.000  1.00  0.00    -0.000 C 
ATOM     11  C   UNL     1      -6.552  -3.791   0.000  1.00  0.00     0.005 C 
ATOM     12  C   UNL     1      -7.065   0.021   0.000  1.00  0.00     0.121 C 
ATOM     13  C   UNL     1      -6.059  -2.374   0.000  1.00  0.00     0.001 C 
ATOM     14  C   UNL     1      -5.682   0.602   0.000  1.00  0.00     0.037 C 
ATOM     15  C   UNL     1      -4.676  -1.793   0.000  1.00  0.00     0.000 C 
ATOM     16  C   UNL     1      -4.488  -0.305   0.000  1.00  0.00     0.005 C 
ATOM     17  C   UNL     1      -3.481  -2.700   0.000  1.00  0.00     0.031 C 
ATOM     18  C   UNL     1      -3.105   0.276   0.000  1.00  0.00    -0.008 C 
ATOM     19  C   UNL     1      -2.098  -2.119   0.000  1.00  0.00    -0.027 C 
ATOM     20  C   UNL     1      -2.917   1.764   0.000  1.00  0.00     0.015 C 
ATOM     21  C   UNL     1      -1.910  -0.631   0.000  1.00  0.00    -0.064 C 
ATOM     22  C   UNL     1      -1.534   2.345   0.000  1.00  0.00     0.046 C 
ATOM     23  C   UNL     1      -0.527  -0.050   0.000  1.00  0.00     0.076 C 
ATOM     24  C   UNL     1      -8.536  -0.690   0.000  1.00  0.00     0.015 C 
ATOM     25  C   UNL     1      -4.300   1.183   0.000  1.00  0.00     0.016 C 
BRANCH   8  26
ATOM     26  C   UNL     1      -9.902  -1.829   0.000  1.00  0.00    -0.010 C 
ATOM     27  C   UNL     1     -11.037  -2.809   0.000  1.00  0.00     0.008 C 
BRANCH  26  28
ATOM     28  C   UNL     1     -10.183  -0.356   0.000  1.00  0.00     0.008 C 
BRANCH  28  29
ATOM     29  C   UNL     1     -11.599   0.138   0.000  1.00  0.00     0.031 C 
BRANCH  29  30
ATOM     30  C   UNL     1     -11.880   1.611   0.000  1.00  0.00    -0.075 C 
ATOM     31  C   UNL     1     -13.296   2.104   0.000  1.00  0.00     0.008 C 
BRANCH  30  32
ATOM     32  C   UNL     1     -10.744   2.591   0.000  1.00  0.00     0.008 C 
ATOM     33  C   UNL     1     -11.025   4.064   0.000  1.00  0.00     0.012 C 
ATOM     34  C   UNL     1      -9.328   2.097   0.000  1.00  0.00     0.012 C 
ENDBRANCH  30  32
ENDBRANCH  29  30
ENDBRANCH  28  29
ENDBRANCH  26  28
ENDBRANCH   8  26
BRANCH  12  35
ATOM     35  O   UNL     1      -8.260   0.928   0.000  1.00  0.00    -0.393 OA
ATOM     36  H   UNL     1       0.000   0.000   0.000  1.00  0.00     0.210 HD
ENDBRANCH  12  35
ENDBRANCH   6   7
ENDBRANCH   4   6
ENDBRANCH   3   4
ENDBRANCH   2   3
ENDBRANCH   1   2
BRANCH   1  37
ATOM     37  C   UNL     1       7.394   0.460   0.000  1.00  0.00     0.000 C 
BRANCH  37  38
ATOM     38  C   UNL     1       8.776   1.041   0.000  1.00  0.00     0.000 C 
BRANCH  38  39
ATOM     39  C   UNL     1       9.971   0.134   0.000  1.00  0.00     0.000 C 
BRANCH  39  40
ATOM     40  C   UNL     1      11.354   0.715   0.000  1.00  0.00     0.000 C 
BRANCH  40  41
ATOM     41  C   UNL     1      12.549  -0.192   0.000  1.00  0.00     0.000 C 
BRANCH  41  42
ATOM     42  C   UNL     1      13.931   0.389   0.000  1.00  0.00    -0.000 C 
BRANCH  42  43
ATOM     43  C   UNL     1      15.126  -0.518   0.000  1.00  0.00    -0.000 C 
BRANCH  43  44
ATOM     44  C   UNL     1      16.509   0.063   0.000  1.00  0.00    -0.000 C 
BRANCH  44  45
ATOM     45  C   UNL     1      17.704  -0.844   0.000  1.00  0.00    -0.000 C 
BRANCH  45  46
ATOM     46  C   UNL     1      19.087  -0.263   0.000  1.00  0.00    -0.000 C 
BRANCH  46  47
ATOM     47  C   UNL     1      20.281  -1.170   0.000  1.00  0.00    -0.003 C 
ATOM     48  C   UNL     1      21.664  -0.589   0.000  1.00  0.00     0.004 C 
ENDBRANCH  46  47
ENDBRANCH  45  46
ENDBRANCH  44  45
ENDBRANCH  43  44
ENDBRANCH  42  43
ENDBRANCH  41  42
ENDBRANCH  40  41
ENDBRANCH  39  40
ENDBRANCH  38  39
ENDBRANCH  37  38
ENDBRANCH   1  37
TORSDOF 22
