REMARK SMILES O=C(CCCCc1ccc2c(c1)OCO2)N1CCCC1
REMARK SMILES IDX 4 1 3 2 2 3 16 4 17 5 20 6 18 7 19 8 1 9 5 10 6 11 7 12 8 13
REMARK SMILES IDX 12 14 9 15 11 16 10 17 13 18 15 19 14 20
REMARK H PARENT
ROOT
ATOM      1  C   UNL     1       1.462   0.947   0.000  1.00  0.00     0.010 C 
ENDROOT
BRANCH   1   2
ATOM      2  C   UNL     1       2.720   0.130   0.000  1.00  0.00     0.100 C 
BRANCH   2   3
ATOM      3  C   UNL     1       4.057   0.811   0.000  1.00  0.00     0.222 C 
ATOM      4  N   UNL     1       5.315  -0.006   0.000  1.00  0.00    -0.343 N 
ATOM      5  C   UNL     1       6.715   0.532   0.000  1.00  0.00     0.119 C 
ATOM      6  C   UNL     1       5.393  -1.504   0.000  1.00  0.00     0.119 C 
ATOM      7  C   UNL     1       7.659  -0.634   0.000  1.00  0.00     0.023 C 
ATOM      8  C   UNL     1       6.842  -1.892   0.000  1.00  0.00     0.023 C 
ATOM      9  O   UNL     1       4.135   2.309   0.000  1.00  0.00    -0.275 OA
ENDBRANCH   2   3
ENDBRANCH   1   2
BRANCH   1  10
ATOM     10  C   UNL     1       0.126   0.266   0.000  1.00  0.00     0.005 C 
BRANCH  10  11
ATOM     11  C   UNL     1      -1.132   1.083   0.000  1.00  0.00     0.035 C 
BRANCH  11  12
ATOM     12  C   UNL     1      -2.469   0.402   0.000  1.00  0.00    -0.044 A 
ATOM     13  C   UNL     1      -2.547  -1.096   0.000  1.00  0.00     0.008 A 
ATOM     14  C   UNL     1      -3.727   1.219   0.000  1.00  0.00     0.054 A 
ATOM     15  C   UNL     1      -3.884  -1.777   0.000  1.00  0.00     0.051 A 
ATOM     16  C   UNL     1      -5.063   0.537   0.000  1.00  0.00     0.166 A 
ATOM     17  C   UNL     1      -5.142  -0.960   0.000  1.00  0.00     0.165 A 
ATOM     18  O   UNL     1      -6.464   1.075   0.000  1.00  0.00    -0.454 OA
ATOM     19  O   UNL     1      -6.591  -1.349   0.000  1.00  0.00    -0.454 OA
ATOM     20  C   UNL     1      -7.408  -0.091   0.000  1.00  0.00     0.468 C 
ENDBRANCH  11  12
ENDBRANCH  10  11
ENDBRANCH   1  10
TORSDOF 5
