REMARK SMILES COc1c(O)cc(C(=O)O[C@@H]2[C@@H](O)[C@H](C)O[C@@H](Oc3c(-c4ccc(O)cc4)oc4cc(O)cc(O)c4c3=O)[C@@H]2O)cc1O
REMARK SMILES IDX 11 1 12 2 14 3 15 4 16 5 17 6 39 7 10 8 8 9 9 10 7 11 3 12
REMARK SMILES IDX 4 13 42 14 6 15 41 16 2 17 1 18 5 19 43 21 13 23 40 25 18 27
REMARK SMILES IDX 19 28 20 29 37 30 28 31 36 32 29 33 34 34 30 35 33 36 31 37
REMARK SMILES IDX 38 38 21 39 22 40 27 41 23 42 26 43 24 44 25 45 35 47 32 49
REMARK H PARENT 5 20 43 22 13 24 40 26 25 46 35 48 32 50
ROOT
ATOM      1  C   UNL     1       1.844   0.645   0.000  1.00  0.00     0.243 C 
ATOM      2  C   UNL     1       1.556   2.117   0.000  1.00  0.00     0.187 C 
ATOM      3  C   UNL     1       0.137   2.604   0.000  1.00  0.00     0.152 C 
ATOM      4  C   UNL     1      -0.150   4.076   0.000  1.00  0.00     0.042 C 
ATOM      5  O   UNL     1      -0.994   1.619   0.000  1.00  0.00    -0.335 OA
ATOM      6  C   UNL     1      -0.706   0.146   0.000  1.00  0.00     0.340 C 
ATOM      7  C   UNL     1       0.713  -0.340   0.000  1.00  0.00     0.227 C 
ENDROOT
BRANCH   1   8
ATOM      8  O   UNL     1       3.263   0.158   0.000  1.00  0.00    -0.453 OA
BRANCH   8   9
ATOM      9  C   UNL     1       4.394   1.143   0.000  1.00  0.00     0.338 C 
ATOM     10  O   UNL     1       4.106   2.615   0.000  1.00  0.00    -0.246 OA
BRANCH   9  11
ATOM     11  C   UNL     1       5.813   0.657   0.000  1.00  0.00     0.067 A 
ATOM     12  C   UNL     1       8.650  -0.317   0.000  1.00  0.00     0.202 A 
ATOM     13  C   UNL     1       7.519  -1.302   0.000  1.00  0.00     0.162 A 
ATOM     14  C   UNL     1       8.362   1.155   0.000  1.00  0.00     0.162 A 
ATOM     15  C   UNL     1       6.100  -0.816   0.000  1.00  0.00     0.066 A 
ATOM     16  C   UNL     1       6.944   1.642   0.000  1.00  0.00     0.066 A 
BRANCH  12  17
ATOM     17  O   UNL     1      10.069  -0.804   0.000  1.00  0.00    -0.490 OA
ATOM     18  C   UNL     1      10.357  -2.276   0.000  1.00  0.00     0.278 C 
ENDBRANCH  12  17
BRANCH  13  19
ATOM     19  O   UNL     1       7.807  -2.774   0.000  1.00  0.00    -0.504 OA
ATOM     20  H   UNL     1       0.000   0.000   0.000  1.00  0.00     0.293 HD
ENDBRANCH  13  19
BRANCH  14  21
ATOM     21  O   UNL     1       9.493   2.140   0.000  1.00  0.00    -0.504 OA
ATOM     22  H   UNL     1       0.000   0.000   0.000  1.00  0.00     0.293 HD
ENDBRANCH  14  21
ENDBRANCH   9  11
ENDBRANCH   8   9
ENDBRANCH   1   8
BRANCH   2  23
ATOM     23  O   UNL     1       2.687   3.102   0.000  1.00  0.00    -0.386 OA
ATOM     24  H   UNL     1       0.000   0.000   0.000  1.00  0.00     0.211 HD
ENDBRANCH   2  23
BRANCH   7  25
ATOM     25  O   UNL     1       1.001  -1.813   0.000  1.00  0.00    -0.383 OA
ATOM     26  H   UNL     1       0.000   0.000   0.000  1.00  0.00     0.211 HD
ENDBRANCH   7  25
BRANCH   6  27
ATOM     27  O   UNL     1      -1.837  -0.839   0.000  1.00  0.00    -0.454 OA
BRANCH  27  28
ATOM     28  C   UNL     1      -3.256  -0.352   0.000  1.00  0.00     0.214 A 
ATOM     29  C   UNL     1      -4.387  -1.337   0.000  1.00  0.00     0.180 A 
ATOM     30  C   UNL     1      -3.543   1.120   0.000  1.00  0.00     0.239 A 
ATOM     31  O   UNL     1      -5.805  -0.851   0.000  1.00  0.00    -0.452 OA
ATOM     32  C   UNL     1      -4.962   1.607   0.000  1.00  0.00     0.111 A 
ATOM     33  C   UNL     1      -6.093   0.621   0.000  1.00  0.00     0.146 A 
ATOM     34  C   UNL     1      -5.250   3.079   0.000  1.00  0.00     0.134 A 
ATOM     35  C   UNL     1      -7.512   1.108   0.000  1.00  0.00     0.094 A 
ATOM     36  C   UNL     1      -6.669   3.566   0.000  1.00  0.00     0.093 A 
ATOM     37  C   UNL     1      -7.800   2.580   0.000  1.00  0.00     0.123 A 
ATOM     38  O   UNL     1      -2.413   2.105   0.000  1.00  0.00    -0.285 OA
BRANCH  29  39
ATOM     39  C   UNL     1      -4.099  -2.810   0.000  1.00  0.00     0.021 A 
ATOM     40  C   UNL     1      -2.680  -3.296   0.000  1.00  0.00     0.016 A 
ATOM     41  C   UNL     1      -5.230  -3.795   0.000  1.00  0.00     0.016 A 
ATOM     42  C   UNL     1      -2.392  -4.769   0.000  1.00  0.00     0.047 A 
ATOM     43  C   UNL     1      -4.942  -5.267   0.000  1.00  0.00     0.047 A 
ATOM     44  C   UNL     1      -3.523  -5.754   0.000  1.00  0.00     0.115 A 
BRANCH  44  45
ATOM     45  O   UNL     1      -3.235  -7.226   0.000  1.00  0.00    -0.508 OA
ATOM     46  H   UNL     1       0.000   0.000   0.000  1.00  0.00     0.293 HD
ENDBRANCH  44  45
ENDBRANCH  29  39
BRANCH  34  47
ATOM     47  O   UNL     1      -4.119   4.064   0.000  1.00  0.00    -0.507 OA
ATOM     48  H   UNL     1       0.000   0.000   0.000  1.00  0.00     0.293 HD
ENDBRANCH  34  47
BRANCH  37  49
ATOM     49  O   UNL     1      -9.219   3.067   0.000  1.00  0.00    -0.508 OA
ATOM     50  H   UNL     1       0.000   0.000   0.000  1.00  0.00     0.293 HD
ENDBRANCH  37  49
ENDBRANCH  27  28
ENDBRANCH   6  27
TORSDOF 14
