REMARK SMILES COc1cc(OC)c2c(=O)c(OC)c(-c3cc(OC(C)=O)c(OC)cc3OC(C)=O)oc2c1
REMARK SMILES IDX 15 1 16 2 17 3 22 4 25 5 26 6 14 7 3 8 4 9 33 10 5 11 32 12
REMARK SMILES IDX 8 13 31 14 9 15 11 16 10 17 2 18 1 19 6 20 7 21 12 22 13 23
REMARK SMILES IDX 27 24 28 25 29 26 30 27 18 28 19 29 20 30 21 31 23 32 24 33
REMARK H PARENT
ROOT
ATOM      1  C   UNL     1       1.407  -0.177   0.000  1.00  0.00     0.068 A 
ATOM      2  C   UNL     1       2.440   0.910   0.000  1.00  0.00     0.067 A 
ATOM      3  C   UNL     1       3.898   0.558   0.000  1.00  0.00     0.173 A 
ATOM      4  C   UNL     1       4.323  -0.880   0.000  1.00  0.00     0.165 A 
ATOM      5  C   UNL     1       3.290  -1.967   0.000  1.00  0.00     0.098 A 
ATOM      6  C   UNL     1       1.831  -1.616   0.000  1.00  0.00     0.145 A 
ENDROOT
BRANCH   1   7
ATOM      7  C   UNL     1      -0.051   0.174   0.000  1.00  0.00     0.184 A 
ATOM      8  C   UNL     1      -5.035  -1.297   0.000  1.00  0.00     0.126 A 
ATOM      9  C   UNL     1      -5.460   0.142   0.000  1.00  0.00     0.093 A 
ATOM     10  C   UNL     1      -3.577  -1.648   0.000  1.00  0.00     0.094 A 
ATOM     11  C   UNL     1      -4.426   1.229   0.000  1.00  0.00     0.137 A 
ATOM     12  C   UNL     1      -2.543  -0.561   0.000  1.00  0.00     0.146 A 
ATOM     13  C   UNL     1      -2.968   0.877   0.000  1.00  0.00     0.111 A 
ATOM     14  O   UNL     1      -1.085  -0.913   0.000  1.00  0.00    -0.451 OA
ATOM     15  C   UNL     1      -1.934   1.965   0.000  1.00  0.00     0.239 A 
ATOM     16  C   UNL     1      -0.476   1.613   0.000  1.00  0.00     0.211 A 
ATOM     17  O   UNL     1      -2.359   3.403   0.000  1.00  0.00    -0.285 OA
BRANCH   8  18
ATOM     18  O   UNL     1      -6.069  -2.384   0.000  1.00  0.00    -0.496 OA
ATOM     19  C   UNL     1      -7.527  -2.032   0.000  1.00  0.00     0.278 C 
ENDBRANCH   8  18
BRANCH  11  20
ATOM     20  O   UNL     1      -4.851   2.668   0.000  1.00  0.00    -0.496 OA
ATOM     21  C   UNL     1      -6.309   3.019   0.000  1.00  0.00     0.278 C 
ENDBRANCH  11  20
BRANCH  16  22
ATOM     22  O   UNL     1       0.557   2.700   0.000  1.00  0.00    -0.490 OA
ATOM     23  C   UNL     1       2.016   2.349   0.000  1.00  0.00     0.278 C 
ENDBRANCH  16  22
ENDBRANCH   1   7
BRANCH   6  24
ATOM     24  O   UNL     1       0.798  -2.703   0.000  1.00  0.00    -0.426 OA
BRANCH  24  25
ATOM     25  C   UNL     1       1.222  -4.141   0.000  1.00  0.00     0.308 C 
ATOM     26  C   UNL     1       0.189  -5.229   0.000  1.00  0.00     0.139 C 
ATOM     27  O   UNL     1       2.681  -4.493   0.000  1.00  0.00    -0.252 OA
ENDBRANCH  24  25
ENDBRANCH   6  24
BRANCH   3  28
ATOM     28  O   UNL     1       4.932   1.645   0.000  1.00  0.00    -0.423 OA
BRANCH  28  29
ATOM     29  C   UNL     1       4.507   3.084   0.000  1.00  0.00     0.308 C 
ATOM     30  C   UNL     1       5.541   4.171   0.000  1.00  0.00     0.139 C 
ATOM     31  O   UNL     1       3.049   3.436   0.000  1.00  0.00    -0.252 OA
ENDBRANCH  28  29
ENDBRANCH   3  28
BRANCH   4  32
ATOM     32  O   UNL     1       5.781  -1.232   0.000  1.00  0.00    -0.493 OA
ATOM     33  C   UNL     1       6.206  -2.670   0.000  1.00  0.00     0.278 C 
ENDBRANCH   4  32
TORSDOF 9
