REMARK SMILES CCc1c(C)ccc2c1CC[C@H]1C(C)(C)C(=O)CC[C@]21C
REMARK SMILES IDX 3 1 4 2 5 3 6 4 7 5 8 6 9 7 10 8 11 9 12 10 13 11 14 12
REMARK SMILES IDX 15 13 16 14 17 15 18 16 19 17 20 18 21 19 2 20 1 21
REMARK H PARENT
ROOT
ATOM      1  C   UNL     1      -2.937  -0.523   0.000  1.00  0.00    -0.042 A 
ATOM      2  C   UNL     1      -3.631   0.806   0.000  1.00  0.00    -0.048 A 
ATOM      3  C   UNL     1      -5.130   0.870   0.000  1.00  0.00     0.044 C 
ATOM      4  C   UNL     1      -2.826   2.072   0.000  1.00  0.00     0.004 A 
ATOM      5  C   UNL     1      -1.328   2.009   0.000  1.00  0.00     0.005 A 
ATOM      6  C   UNL     1      -0.634   0.679   0.000  1.00  0.00    -0.038 A 
ATOM      7  C   UNL     1      -1.438  -0.587   0.000  1.00  0.00    -0.041 A 
ATOM      8  C   UNL     1      -0.744  -1.917   0.000  1.00  0.00     0.036 C 
ATOM      9  C   UNL     1       0.755  -1.980   0.000  1.00  0.00     0.010 C 
ATOM     10  C   UNL     1       1.559  -0.714   0.000  1.00  0.00     0.013 C 
ATOM     11  C   UNL     1       3.058  -0.778   0.000  1.00  0.00     0.027 C 
ATOM     12  C   UNL     1       4.444  -1.350   0.000  1.00  0.00     0.020 C 
ATOM     13  C   UNL     1       2.735  -2.243   0.000  1.00  0.00     0.020 C 
ATOM     14  C   UNL     1       3.862   0.488   0.000  1.00  0.00     0.138 C 
ATOM     15  O   UNL     1       5.361   0.424   0.000  1.00  0.00    -0.299 OA
ATOM     16  C   UNL     1       3.168   1.818   0.000  1.00  0.00     0.077 C 
ATOM     17  C   UNL     1       1.669   1.881   0.000  1.00  0.00     0.019 C 
ATOM     18  C   UNL     1       0.865   0.615   0.000  1.00  0.00    -0.003 C 
ATOM     19  C   UNL     1       0.171   1.945   0.000  1.00  0.00     0.017 C 
ENDROOT
BRANCH   1  20
ATOM     20  C   UNL     1      -3.741  -1.789   0.000  1.00  0.00     0.032 C 
ATOM     21  C   UNL     1      -5.240  -1.726   0.000  1.00  0.00     0.009 C 
ENDBRANCH   1  20
TORSDOF 1
