REMARK SMILES C=C[C@]1(C)CC2=C(C(=O)[C@H]1OC(C)=O)[C@@]1(C)CCCC(C)(C)[C@@H]1CC2=O
REMARK SMILES IDX 3 1 4 2 5 3 6 4 7 5 8 6 9 7 10 8 15 9 16 10 17 11 18 12
REMARK SMILES IDX 19 13 20 14 21 15 22 16 23 17 24 18 25 19 26 20 2 21 1 22
REMARK SMILES IDX 11 23 12 24 13 25 14 26
REMARK H PARENT
ROOT
ATOM      1  C   UNL     1      -2.537   1.455   0.000  1.00  0.00     0.034 C 
ATOM      2  C   UNL     1      -4.000   1.125   0.000  1.00  0.00     0.020 C 
ATOM      3  C   UNL     1      -1.275   2.265   0.000  1.00  0.00     0.055 C 
ATOM      4  C   UNL     1       0.058   1.577   0.000  1.00  0.00     0.004 C 
ATOM      5  C   UNL     1       0.129   0.079   0.000  1.00  0.00     0.012 C 
ATOM      6  C   UNL     1      -1.133  -0.732   0.000  1.00  0.00     0.201 C 
ATOM      7  O   UNL     1      -1.062  -2.230   0.000  1.00  0.00    -0.290 OA
ATOM      8  C   UNL     1      -2.466  -0.044   0.000  1.00  0.00     0.257 C 
ATOM      9  C   UNL     1       1.462  -0.609   0.000  1.00  0.00     0.000 C 
ATOM     10  C   UNL     1       0.200  -1.419   0.000  1.00  0.00     0.017 C 
ATOM     11  C   UNL     1       1.533  -2.107   0.000  1.00  0.00     0.012 C 
ATOM     12  C   UNL     1       2.866  -2.795   0.000  1.00  0.00     0.001 C 
ATOM     13  C   UNL     1       4.128  -1.985   0.000  1.00  0.00     0.007 C 
ATOM     14  C   UNL     1       4.057  -0.486   0.000  1.00  0.00    -0.031 C 
ATOM     15  C   UNL     1       4.503   0.946   0.000  1.00  0.00     0.011 C 
ATOM     16  C   UNL     1       5.545  -0.677   0.000  1.00  0.00     0.011 C 
ATOM     17  C   UNL     1       2.724   0.202   0.000  1.00  0.00     0.013 C 
ATOM     18  C   UNL     1       2.653   1.700   0.000  1.00  0.00     0.085 C 
ATOM     19  C   UNL     1       1.320   2.388   0.000  1.00  0.00     0.159 C 
ATOM     20  O   UNL     1       1.250   3.886   0.000  1.00  0.00    -0.295 OA
ENDROOT
BRANCH   1  21
ATOM     21  C   UNL     1      -3.116   2.838   0.000  1.00  0.00    -0.024 C 
ATOM     22  C   UNL     1      -2.207   4.032   0.000  1.00  0.00     0.005 C 
ENDBRANCH   1  21
BRANCH   8  23
ATOM     23  O   UNL     1      -3.728  -0.854   0.000  1.00  0.00    -0.453 OA
BRANCH  23  24
ATOM     24  C   UNL     1      -3.658  -2.352   0.000  1.00  0.00     0.303 C 
ATOM     25  C   UNL     1      -4.920  -3.163   0.000  1.00  0.00     0.139 C 
ATOM     26  O   UNL     1      -2.325  -3.040   0.000  1.00  0.00    -0.253 OA
ENDBRANCH  23  24
ENDBRANCH   8  23
TORSDOF 3
