REMARK SMILES COc1cc(O)c(CCCc2cc3c(cc2O)OCO3)cc1C
REMARK SMILES IDX 9 1 8 2 7 3 3 4 4 5 22 6 5 7 21 8 23 9 2 10 1 11 6 12 10 14
REMARK SMILES IDX 11 15 12 16 16 17 13 18 15 19 14 20 20 21 18 22 19 23 17 24
REMARK H PARENT 6 13 17 25
ROOT
ATOM      1  C   UNL     1       0.017   0.849   0.000  1.00  0.00     0.010 C 
ENDROOT
BRANCH   1   2
ATOM      2  C   UNL     1       1.281   1.657   0.000  1.00  0.00     0.040 C 
BRANCH   2   3
ATOM      3  C   UNL     1       2.612   0.967   0.000  1.00  0.00    -0.006 A 
ATOM      4  C   UNL     1       5.275  -0.415   0.000  1.00  0.00     0.125 A 
ATOM      5  C   UNL     1       4.011  -1.223   0.000  1.00  0.00     0.093 A 
ATOM      6  C   UNL     1       5.208   1.084   0.000  1.00  0.00    -0.008 A 
ATOM      7  C   UNL     1       2.680  -0.532   0.000  1.00  0.00     0.122 A 
ATOM      8  C   UNL     1       3.876   1.774   0.000  1.00  0.00     0.014 A 
ATOM      9  C   UNL     1       6.471   1.891   0.000  1.00  0.00     0.048 C 
BRANCH   4  10
ATOM     10  O   UNL     1       6.607  -1.105   0.000  1.00  0.00    -0.496 OA
ATOM     11  C   UNL     1       6.674  -2.604   0.000  1.00  0.00     0.278 C 
ENDBRANCH   4  10
BRANCH   7  12
ATOM     12  O   UNL     1       1.416  -1.340   0.000  1.00  0.00    -0.508 OA
ATOM     13  H   UNL     1       0.000   0.000   0.000  1.00  0.00     0.293 HD
ENDBRANCH   7  12
ENDBRANCH   2   3
ENDBRANCH   1   2
BRANCH   1  14
ATOM     14  C   UNL     1      -1.315   1.540   0.000  1.00  0.00     0.040 C 
BRANCH  14  15
ATOM     15  C   UNL     1      -2.579   0.732   0.000  1.00  0.00    -0.002 A 
ATOM     16  C   UNL     1      -3.910   1.423   0.000  1.00  0.00     0.058 A 
ATOM     17  C   UNL     1      -2.511  -0.766   0.000  1.00  0.00     0.122 A 
ATOM     18  C   UNL     1      -5.174   0.615   0.000  1.00  0.00     0.166 A 
ATOM     19  C   UNL     1      -3.775  -1.574   0.000  1.00  0.00     0.097 A 
ATOM     20  C   UNL     1      -5.107  -0.883   0.000  1.00  0.00     0.169 A 
ATOM     21  O   UNL     1      -6.620   1.014   0.000  1.00  0.00    -0.454 OA
ATOM     22  O   UNL     1      -6.511  -1.411   0.000  1.00  0.00    -0.453 OA
ATOM     23  C   UNL     1      -7.446  -0.238   0.000  1.00  0.00     0.468 C 
BRANCH  17  24
ATOM     24  O   UNL     1      -1.180  -1.457   0.000  1.00  0.00    -0.508 OA
ATOM     25  H   UNL     1       0.000   0.000   0.000  1.00  0.00     0.293 HD
ENDBRANCH  17  24
ENDBRANCH  14  15
ENDBRANCH   1  14
TORSDOF 7
