REMARK SMILES C=C(CC[C@@H](C)[C@H]1CC[C@H]2[C@@H]3CC[C@H]4[C@H](C)[C@@H](O)CC[C@]4(C)[C@H]3CC[C@]12C)C(C)C
REMARK SMILES IDX 4 1 3 2 2 3 1 4 28 5 29 6 30 7 5 8 6 9 7 10 8 11 26 12 9 13
REMARK SMILES IDX 25 14 10 15 24 16 11 17 23 18 12 19 21 20 13 21 20 22 14 23
REMARK SMILES IDX 19 24 15 25 17 26 27 27 22 28 16 29 18 30
REMARK H PARENT 18 31
ROOT
ATOM      1  C   UNL     1       4.032   0.273   0.000  1.00  0.00     0.008 C 
ENDROOT
BRANCH   1   2
ATOM      2  C   UNL     1       5.461  -0.183   0.000  1.00  0.00     0.031 C 
BRANCH   2   3
ATOM      3  C   UNL     1       5.781  -1.649   0.000  1.00  0.00    -0.075 C 
ATOM      4  C   UNL     1       7.210  -2.105   0.000  1.00  0.00     0.008 C 
BRANCH   3   5
ATOM      5  C   UNL     1       4.671  -2.658   0.000  1.00  0.00     0.008 C 
ATOM      6  C   UNL     1       4.991  -4.124   0.000  1.00  0.00     0.012 C 
ATOM      7  C   UNL     1       3.242  -2.202   0.000  1.00  0.00     0.012 C 
ENDBRANCH   3   5
ENDBRANCH   2   3
ENDBRANCH   1   2
BRANCH   1   8
ATOM      8  C   UNL     1       3.712   1.738   0.000  1.00  0.00    -0.010 C 
ATOM      9  C   UNL     1       4.822   2.748   0.000  1.00  0.00     0.008 C 
BRANCH   8  10
ATOM     10  C   UNL     1       2.283   2.194   0.000  1.00  0.00    -0.002 C 
ATOM     11  C   UNL     1       1.812   3.618   0.000  1.00  0.00     0.005 C 
ATOM     12  C   UNL     1       1.075   1.306   0.000  1.00  0.00    -0.026 C 
ATOM     13  C   UNL     1       0.312   3.610   0.000  1.00  0.00     0.005 C 
ATOM     14  C   UNL     1       0.926  -0.187   0.000  1.00  0.00     0.007 C 
ATOM     15  C   UNL     1      -0.144   2.181   0.000  1.00  0.00    -0.001 C 
ATOM     16  C   UNL     1      -0.441  -0.804   0.000  1.00  0.00     0.005 C 
ATOM     17  C   UNL     1      -1.511   1.564   0.000  1.00  0.00    -0.004 C 
ATOM     18  C   UNL     1      -1.660   0.071   0.000  1.00  0.00    -0.001 C 
ATOM     19  C   UNL     1      -2.729   2.439   0.000  1.00  0.00     0.004 C 
ATOM     20  C   UNL     1      -3.027  -0.546   0.000  1.00  0.00    -0.026 C 
ATOM     21  C   UNL     1      -4.096   1.821   0.000  1.00  0.00     0.005 C 
ATOM     22  C   UNL     1      -3.175  -2.039   0.000  1.00  0.00     0.010 C 
ATOM     23  C   UNL     1      -4.245   0.329   0.000  1.00  0.00     0.001 C 
ATOM     24  C   UNL     1      -4.542  -2.656   0.000  1.00  0.00     0.032 C 
ATOM     25  C   UNL     1      -5.612  -0.288   0.000  1.00  0.00     0.018 C 
ATOM     26  C   UNL     1      -5.761  -1.781   0.000  1.00  0.00     0.117 C 
ATOM     27  C   UNL     1       2.377   0.563   0.000  1.00  0.00     0.012 C 
ATOM     28  C   UNL     1      -1.808  -1.421   0.000  1.00  0.00     0.012 C 
ATOM     29  C   UNL     1      -6.830   0.587   0.000  1.00  0.00     0.011 C 
BRANCH  26  30
ATOM     30  O   UNL     1      -7.128  -2.399   0.000  1.00  0.00    -0.393 OA
ATOM     31  H   UNL     1       0.000   0.000   0.000  1.00  0.00     0.210 HD
ENDBRANCH  26  30
ENDBRANCH   8  10
ENDBRANCH   1   8
TORSDOF 6
