REMARK SMILES COC(=O)[C@H](O)[C@H]1C(C)(C)C(=O)C=C2O[C@@]3(C)[C@@]4(CC[C@@]5(C)[C@H](c6ccoc6)OC(=O)[C@H](O)[C@@]345)[C@@]21C
REMARK SMILES IDX 5 1 3 2 4 3 2 4 1 5 6 6 7 8 8 9 35 10 11 11 18 12 14 13
REMARK SMILES IDX 13 14 16 15 19 16 34 17 15 18 20 19 32 20 21 21 30 22 23 23
REMARK SMILES IDX 29 24 9 25 10 26 36 27 12 28 17 29 22 30 31 31 33 32 24 34
REMARK SMILES IDX 28 35 25 36 27 37 26 38
REMARK H PARENT 6 7 33 33
ROOT
ATOM      1  C   UNL     1       2.187  -1.508   0.000  1.00  0.00     0.229 C 
ENDROOT
BRANCH   1   2
ATOM      2  C   UNL     1       3.219  -2.597   0.000  1.00  0.00     0.335 C 
ATOM      3  O   UNL     1       4.677  -2.247   0.000  1.00  0.00    -0.249 OA
BRANCH   2   4
ATOM      4  O   UNL     1       2.792  -4.035   0.000  1.00  0.00    -0.467 OA
ATOM      5  C   UNL     1       3.824  -5.123   0.000  1.00  0.00     0.282 C 
ENDBRANCH   2   4
ENDBRANCH   1   2
BRANCH   1   6
ATOM      6  O   UNL     1       0.728  -1.857   0.000  1.00  0.00    -0.381 OA
ATOM      7  H   UNL     1       0.000   0.000   0.000  1.00  0.00     0.211 HD
ENDBRANCH   1   6
BRANCH   1   8
ATOM      8  C   UNL     1       2.613  -0.070   0.000  1.00  0.00     0.057 C 
ATOM      9  C   UNL     1       4.072   0.279   0.000  1.00  0.00     0.034 C 
ATOM     10  C   UNL     1       1.581   1.018   0.000  1.00  0.00     0.042 C 
ATOM     11  C   UNL     1       4.499   1.717   0.000  1.00  0.00     0.165 C 
ATOM     12  C   UNL     1       0.082   0.980   0.000  1.00  0.00     0.037 C 
ATOM     13  C   UNL     1       2.008   2.457   0.000  1.00  0.00     0.107 C 
ATOM     14  C   UNL     1       3.467   2.806   0.000  1.00  0.00     0.090 C 
ATOM     15  C   UNL     1      -0.418   2.394   0.000  1.00  0.00     0.123 C 
ATOM     16  C   UNL     1       0.277  -0.507   0.000  1.00  0.00     0.014 C 
ATOM     17  C   UNL     1      -1.393   1.254   0.000  1.00  0.00     0.067 C 
ATOM     18  O   UNL     1       0.772   3.307   0.000  1.00  0.00    -0.490 OA
ATOM     19  C   UNL     1      -1.077  -1.152   0.000  1.00  0.00     0.012 C 
ATOM     20  C   UNL     1      -2.176   2.534   0.000  1.00  0.00     0.235 C 
ATOM     21  C   UNL     1      -2.109  -0.064   0.000  1.00  0.00     0.022 C 
ATOM     22  C   UNL     1      -3.676   2.495   0.000  1.00  0.00     0.336 C 
ATOM     23  C   UNL     1      -3.609  -0.102   0.000  1.00  0.00     0.217 C 
ATOM     24  O   UNL     1      -4.392   1.177   0.000  1.00  0.00    -0.455 OA
ATOM     25  C   UNL     1       4.163  -1.218   0.000  1.00  0.00     0.020 C 
ATOM     26  C   UNL     1       5.562   0.109   0.000  1.00  0.00     0.020 C 
ATOM     27  C   UNL     1       1.006  -0.367   0.000  1.00  0.00     0.021 C 
ATOM     28  O   UNL     1       5.957   2.067   0.000  1.00  0.00    -0.294 OA
ATOM     29  C   UNL     1      -1.003   3.186   0.000  1.00  0.00     0.058 C 
ATOM     30  C   UNL     1      -2.684  -1.449   0.000  1.00  0.00     0.016 C 
ATOM     31  O   UNL     1      -4.459   3.774   0.000  1.00  0.00    -0.249 OA
BRANCH  20  32
ATOM     32  O   UNL     1      -1.815   3.449   0.000  1.00  0.00    -0.381 OA
ATOM     33  H   UNL     1       0.000   0.000   0.000  1.00  0.00     0.211 HD
ENDBRANCH  20  32
BRANCH  23  34
ATOM     34  C   UNL     1      -4.325  -1.420   0.000  1.00  0.00     0.031 A 
ATOM     35  C   UNL     1      -3.680  -2.774   0.000  1.00  0.00     0.202 A 
ATOM     36  C   UNL     1      -5.813  -1.615   0.000  1.00  0.00     0.049 A 
ATOM     37  O   UNL     1      -4.769  -3.806   0.000  1.00  0.00    -0.472 OA
ATOM     38  C   UNL     1      -6.087  -3.090   0.000  1.00  0.00     0.195 A 
ENDBRANCH  23  34
ENDBRANCH   1   8
TORSDOF 6
