REMARK SMILES CC(=O)Oc1ccc(-c2coc3cc4c(c(OC(C)=O)c3c2=O)C=CC(C)(C)O4)cc1
REMARK SMILES IDX 9 1 10 2 11 3 12 4 13 5 14 6 15 7 24 8 25 9 26 10 27 11
REMARK SMILES IDX 28 12 29 13 16 14 21 15 22 16 23 17 8 18 5 19 6 20 31 21
REMARK SMILES IDX 7 22 30 23 4 24 2 25 1 26 3 27 17 28 18 29 19 30 20 31
REMARK H PARENT
ROOT
ATOM      1  C   UNL     1      -1.554   0.890   0.000  1.00  0.00     0.065 A 
ATOM      2  C   UNL     1      -1.260   2.361   0.000  1.00  0.00     0.208 A 
ATOM      3  O   UNL     1       0.161   2.841   0.000  1.00  0.00    -0.463 OA
ATOM      4  C   UNL     1       1.288   1.851   0.000  1.00  0.00     0.145 A 
ATOM      5  C   UNL     1       2.708   2.332   0.000  1.00  0.00     0.095 A 
ATOM      6  C   UNL     1       3.835   1.342   0.000  1.00  0.00     0.135 A 
ATOM      7  C   UNL     1       3.541  -0.129   0.000  1.00  0.00     0.060 A 
ATOM      8  C   UNL     1       4.668  -1.119   0.000  1.00  0.00     0.015 C 
ATOM      9  C   UNL     1       6.089  -0.638   0.000  1.00  0.00     0.021 C 
ATOM     10  C   UNL     1       6.383   0.833   0.000  1.00  0.00     0.122 C 
ATOM     11  C   UNL     1       7.162   2.114   0.000  1.00  0.00     0.061 C 
ATOM     12  C   UNL     1       7.780   0.288   0.000  1.00  0.00     0.061 C 
ATOM     13  O   UNL     1       5.256   1.823   0.000  1.00  0.00    -0.483 OA
ATOM     14  C   UNL     1       2.120  -0.610   0.000  1.00  0.00     0.156 A 
ATOM     15  C   UNL     1       0.993   0.380   0.000  1.00  0.00     0.109 A 
ATOM     16  C   UNL     1      -0.427  -0.100   0.000  1.00  0.00     0.204 A 
ATOM     17  O   UNL     1      -0.721  -1.571   0.000  1.00  0.00    -0.288 OA
ENDROOT
BRANCH   1  18
ATOM     18  C   UNL     1      -2.975   0.409   0.000  1.00  0.00    -0.011 A 
ATOM     19  C   UNL     1      -5.817  -0.553   0.000  1.00  0.00     0.130 A 
ATOM     20  C   UNL     1      -5.523   0.918   0.000  1.00  0.00     0.048 A 
ATOM     21  C   UNL     1      -4.690  -1.543   0.000  1.00  0.00     0.048 A 
ATOM     22  C   UNL     1      -4.102   1.399   0.000  1.00  0.00     0.013 A 
ATOM     23  C   UNL     1      -3.269  -1.062   0.000  1.00  0.00     0.013 A 
BRANCH  19  24
ATOM     24  O   UNL     1      -7.238  -1.034   0.000  1.00  0.00    -0.427 OA
BRANCH  24  25
ATOM     25  C   UNL     1      -8.364  -0.043   0.000  1.00  0.00     0.308 C 
ATOM     26  C   UNL     1      -9.785  -0.524   0.000  1.00  0.00     0.139 C 
ATOM     27  O   UNL     1      -8.070   1.427   0.000  1.00  0.00    -0.252 OA
ENDBRANCH  24  25
ENDBRANCH  19  24
ENDBRANCH   1  18
BRANCH  14  28
ATOM     28  O   UNL     1       1.826  -2.081   0.000  1.00  0.00    -0.425 OA
BRANCH  28  29
ATOM     29  C   UNL     1       2.953  -3.071   0.000  1.00  0.00     0.308 C 
ATOM     30  C   UNL     1       2.659  -4.542   0.000  1.00  0.00     0.139 C 
ATOM     31  O   UNL     1       4.374  -2.590   0.000  1.00  0.00    -0.252 OA
ENDBRANCH  28  29
ENDBRANCH  14  28
TORSDOF 5
