REMARK SMILES CC(=O)O[C@H]1C2=COC(C)=CC2=C(CC2=C3C=C(C)OC=C3[C@H](OC(C)=O)[C@@](C)(OC(C)=O)C2=O)C(=O)[C@]1(C)OC(C)=O
REMARK SMILES IDX 14 1 13 2 5 3 6 4 38 5 7 6 12 7 36 8 8 9 11 10 9 11 39 12
REMARK SMILES IDX 37 13 10 14 4 15 2 16 1 17 3 18 40 19 41 20 42 21 43 22
REMARK SMILES IDX 15 23 16 24 34 25 17 26 22 27 28 28 18 29 21 30 23 31 20 32
REMARK SMILES IDX 35 33 29 34 19 35 30 36 31 37 32 38 33 39 24 40 25 41 26 42
REMARK SMILES IDX 27 43
REMARK H PARENT
ROOT
ATOM      1  C   UNL     1      -0.000   2.196   0.000  1.00  0.00     0.080 C 
ENDROOT
BRANCH   1   2
ATOM      2  C   UNL     1       1.299   1.446   0.000  1.00  0.00     0.012 C 
ATOM      3  C   UNL     1       3.897  -0.053   0.000  1.00  0.00     0.262 C 
ATOM      4  C   UNL     1       3.897   1.446   0.000  1.00  0.00     0.040 C 
ATOM      5  C   UNL     1       2.598  -0.803   0.000  1.00  0.00     0.212 C 
ATOM      6  C   UNL     1       5.196   2.196   0.000  1.00  0.00     0.203 C 
ATOM      7  C   UNL     1       2.598   2.196   0.000  1.00  0.00    -0.005 C 
ATOM      8  C   UNL     1       1.299  -0.053   0.000  1.00  0.00     0.207 C 
ATOM      9  O   UNL     1       5.196   3.696   0.000  1.00  0.00    -0.469 OA
ATOM     10  C   UNL     1       2.598   3.696   0.000  1.00  0.00     0.051 C 
ATOM     11  C   UNL     1       3.897   4.447   0.000  1.00  0.00     0.101 C 
ATOM     12  C   UNL     1       1.634  -1.952   0.000  1.00  0.00     0.070 C 
ATOM     13  O   UNL     1       0.513  -0.646   0.000  1.00  0.00    -0.290 OA
ATOM     14  C   UNL     1       3.897   5.947   0.000  1.00  0.00     0.087 C 
BRANCH   3  15
ATOM     15  O   UNL     1       5.196  -0.803   0.000  1.00  0.00    -0.453 OA
BRANCH  15  16
ATOM     16  C   UNL     1       5.196  -2.304   0.000  1.00  0.00     0.303 C 
ATOM     17  C   UNL     1       6.495  -3.054   0.000  1.00  0.00     0.139 C 
ATOM     18  O   UNL     1       3.897  -3.054   0.000  1.00  0.00    -0.253 OA
ENDBRANCH  15  16
ENDBRANCH   3  15
BRANCH   5  19
ATOM     19  O   UNL     1       3.562  -1.952   0.000  1.00  0.00    -0.447 OA
BRANCH  19  20
ATOM     20  C   UNL     1       3.049  -3.362   0.000  1.00  0.00     0.303 C 
ATOM     21  C   UNL     1       4.013  -4.511   0.000  1.00  0.00     0.139 C 
ATOM     22  O   UNL     1       1.572  -3.623   0.000  1.00  0.00    -0.253 OA
ENDBRANCH  19  20
ENDBRANCH   5  19
ENDBRANCH   1   2
BRANCH   1  23
ATOM     23  C   UNL     1      -1.299   1.446   0.000  1.00  0.00     0.012 C 
ATOM     24  C   UNL     1      -2.598   2.196   0.000  1.00  0.00    -0.005 C 
ATOM     25  C   UNL     1      -1.299  -0.053   0.000  1.00  0.00     0.207 C 
ATOM     26  C   UNL     1      -2.598   3.696   0.000  1.00  0.00     0.051 C 
ATOM     27  C   UNL     1      -3.897   1.446   0.000  1.00  0.00     0.040 C 
ATOM     28  C   UNL     1      -2.598  -0.803   0.000  1.00  0.00     0.212 C 
ATOM     29  C   UNL     1      -3.897   4.447   0.000  1.00  0.00     0.101 C 
ATOM     30  C   UNL     1      -5.196   2.196   0.000  1.00  0.00     0.203 C 
ATOM     31  C   UNL     1      -3.897  -0.053   0.000  1.00  0.00     0.262 C 
ATOM     32  O   UNL     1      -5.196   3.696   0.000  1.00  0.00    -0.469 OA
ATOM     33  O   UNL     1      -0.513  -0.646   0.000  1.00  0.00    -0.290 OA
ATOM     34  C   UNL     1      -1.634  -1.952   0.000  1.00  0.00     0.070 C 
ATOM     35  C   UNL     1      -3.897   5.947   0.000  1.00  0.00     0.087 C 
BRANCH  28  36
ATOM     36  O   UNL     1      -3.562  -1.952   0.000  1.00  0.00    -0.447 OA
BRANCH  36  37
ATOM     37  C   UNL     1      -3.049  -3.362   0.000  1.00  0.00     0.303 C 
ATOM     38  C   UNL     1      -4.013  -4.511   0.000  1.00  0.00     0.139 C 
ATOM     39  O   UNL     1      -1.572  -3.623   0.000  1.00  0.00    -0.253 OA
ENDBRANCH  36  37
ENDBRANCH  28  36
BRANCH  31  40
ATOM     40  O   UNL     1      -5.196  -0.803   0.000  1.00  0.00    -0.453 OA
BRANCH  40  41
ATOM     41  C   UNL     1      -5.196  -2.304   0.000  1.00  0.00     0.303 C 
ATOM     42  C   UNL     1      -6.495  -3.054   0.000  1.00  0.00     0.139 C 
ATOM     43  O   UNL     1      -3.897  -3.054   0.000  1.00  0.00    -0.253 OA
ENDBRANCH  40  41
ENDBRANCH  31  40
ENDBRANCH   1  23
TORSDOF 10
