REMARK SMILES O=c1c2ccccc2oc2ccc(O)cc12
REMARK SMILES IDX 1 1 2 2 3 3 4 4 5 5 6 6 7 7 8 8 9 9 10 10 11 11 12 12 13 13
REMARK SMILES IDX 15 14 16 15 14 16
REMARK H PARENT 14 17
ROOT
ATOM      1  O   UNL     1       0.138  -2.735   0.000  1.00  0.00    -0.288 OA
ATOM      2  C   UNL     1       0.240  -1.238   0.000  1.00  0.00     0.200 A 
ATOM      3  C   UNL     1       1.588  -0.579   0.000  1.00  0.00     0.065 A 
ATOM      4  C   UNL     1       2.833  -1.416   0.000  1.00  0.00     0.016 A 
ATOM      5  C   UNL     1       4.180  -0.757   0.000  1.00  0.00     0.001 A 
ATOM      6  C   UNL     1       4.283   0.740   0.000  1.00  0.00     0.004 A 
ATOM      7  C   UNL     1       3.038   1.577   0.000  1.00  0.00     0.048 A 
ATOM      8  C   UNL     1       1.691   0.918   0.000  1.00  0.00     0.138 A 
ATOM      9  O   UNL     1       0.446   1.755   0.000  1.00  0.00    -0.456 OA
ATOM     10  C   UNL     1      -0.901   1.095   0.000  1.00  0.00     0.138 A 
ATOM     11  C   UNL     1      -2.146   1.933   0.000  1.00  0.00     0.052 A 
ATOM     12  C   UNL     1      -3.493   1.274   0.000  1.00  0.00     0.050 A 
ATOM     13  C   UNL     1      -3.596  -0.223   0.000  1.00  0.00     0.116 A 
ATOM     14  C   UNL     1      -2.351  -1.060   0.000  1.00  0.00     0.062 A 
ATOM     15  C   UNL     1      -1.004  -0.401   0.000  1.00  0.00     0.069 A 
ENDROOT
BRANCH  13  16
ATOM     16  O   UNL     1      -4.943  -0.882   0.000  1.00  0.00    -0.508 OA
ATOM     17  H   UNL     1       0.000   0.000   0.000  1.00  0.00     0.293 HD
ENDBRANCH  13  16
TORSDOF 1
