REMARK SMILES CC(=O)O[C@@H]1[C@@H](/C=C/c2ccccc2)O[C@H](C[C@H]2CC=CC(=O)O2)C[C@H]1OC(C)=O
REMARK SMILES IDX 5 1 6 2 15 3 16 4 25 5 26 6 4 7 2 8 1 9 3 10 7 11 8 12 9 13
REMARK SMILES IDX 10 14 14 15 11 16 13 17 12 18 27 19 28 20 29 21 30 22 17 23
REMARK SMILES IDX 18 24 19 25 24 26 20 27 22 28 21 29 23 30
REMARK H PARENT
ROOT
ATOM      1  C   UNL     1      -0.354  -1.474   0.000  1.00  0.00     0.250 C 
ATOM      2  C   UNL     1      -0.804  -0.043   0.000  1.00  0.00     0.186 C 
ATOM      3  O   UNL     1       0.211   1.062   0.000  1.00  0.00    -0.367 OA
ATOM      4  C   UNL     1       1.675   0.735   0.000  1.00  0.00     0.126 C 
ATOM      5  C   UNL     1       2.124  -0.696   0.000  1.00  0.00     0.081 C 
ATOM      6  C   UNL     1       1.109  -1.800   0.000  1.00  0.00     0.223 C 
ENDROOT
BRANCH   1   7
ATOM      7  O   UNL     1      -1.369  -2.578   0.000  1.00  0.00    -0.455 OA
BRANCH   7   8
ATOM      8  C   UNL     1      -2.833  -2.252   0.000  1.00  0.00     0.303 C 
ATOM      9  C   UNL     1      -3.848  -3.356   0.000  1.00  0.00     0.139 C 
ATOM     10  O   UNL     1      -3.283  -0.820   0.000  1.00  0.00    -0.253 OA
ENDBRANCH   7   8
ENDBRANCH   1   7
BRANCH   2  11
ATOM     11  C   UNL     1      -2.268   0.284   0.000  1.00  0.00     0.009 C 
BRANCH  11  12
ATOM     12  C   UNL     1      -2.717   1.715   0.000  1.00  0.00     0.006 C 
BRANCH  12  13
ATOM     13  C   UNL     1      -4.181   2.042   0.000  1.00  0.00    -0.026 A 
ATOM     14  C   UNL     1      -4.630   3.473   0.000  1.00  0.00     0.008 A 
ATOM     15  C   UNL     1      -5.196   0.938   0.000  1.00  0.00     0.008 A 
ATOM     16  C   UNL     1      -6.094   3.800   0.000  1.00  0.00     0.001 A 
ATOM     17  C   UNL     1      -6.660   1.264   0.000  1.00  0.00     0.001 A 
ATOM     18  C   UNL     1      -7.109   2.696   0.000  1.00  0.00     0.000 A 
ENDBRANCH  12  13
ENDBRANCH  11  12
ENDBRANCH   2  11
BRANCH   6  19
ATOM     19  O   UNL     1       1.558  -3.232   0.000  1.00  0.00    -0.458 OA
BRANCH  19  20
ATOM     20  C   UNL     1       0.544  -4.336   0.000  1.00  0.00     0.303 C 
ATOM     21  C   UNL     1       0.993  -5.767   0.000  1.00  0.00     0.139 C 
ATOM     22  O   UNL     1      -0.920  -4.009   0.000  1.00  0.00    -0.253 OA
ENDBRANCH  19  20
ENDBRANCH   6  19
BRANCH   4  23
ATOM     23  C   UNL     1       2.690   1.840   0.000  1.00  0.00     0.077 C 
BRANCH  23  24
ATOM     24  C   UNL     1       4.154   1.513   0.000  1.00  0.00     0.183 C 
ATOM     25  C   UNL     1       4.603   0.082   0.000  1.00  0.00     0.073 C 
ATOM     26  O   UNL     1       5.169   2.618   0.000  1.00  0.00    -0.459 OA
ATOM     27  C   UNL     1       6.067  -0.245   0.000  1.00  0.00    -0.016 C 
ATOM     28  C   UNL     1       6.633   2.291   0.000  1.00  0.00     0.330 C 
ATOM     29  C   UNL     1       7.082   0.860   0.000  1.00  0.00     0.089 C 
ATOM     30  O   UNL     1       7.648   3.395   0.000  1.00  0.00    -0.247 OA
ENDBRANCH  23  24
ENDBRANCH   4  23
TORSDOF 9
