REMARK SMILES OC[C@H](Cc1ccc2c(c1)OCO2)[C@H](CO)Cc1ccc2c(c1)OCO2
REMARK SMILES IDX 3 1 2 2 1 3 4 5 5 6 6 7 10 8 7 9 9 10 8 11 11 12 13 13 12 14
REMARK SMILES IDX 14 15 15 16 16 17 17 19 18 20 19 21 23 22 20 23 22 24 21 25
REMARK SMILES IDX 24 26 26 27 25 28
REMARK H PARENT 1 4 16 18
ROOT
ATOM      1  C   UNL     1      -0.809  -0.219   0.000  1.00  0.00     0.025 C 
ENDROOT
BRANCH   1   2
ATOM      2  C   UNL     1      -1.107  -1.689   0.000  1.00  0.00     0.160 C 
BRANCH   2   3
ATOM      3  O   UNL     1       0.018  -2.682   0.000  1.00  0.00    -0.396 OA
ATOM      4  H   UNL     1       0.000   0.000   0.000  1.00  0.00     0.210 HD
ENDBRANCH   2   3
ENDBRANCH   1   2
BRANCH   1   5
ATOM      5  C   UNL     1      -1.933   0.774   0.000  1.00  0.00     0.042 C 
BRANCH   5   6
ATOM      6  C   UNL     1      -3.355   0.297   0.000  1.00  0.00    -0.044 A 
ATOM      7  C   UNL     1      -3.653  -1.173   0.000  1.00  0.00     0.008 A 
ATOM      8  C   UNL     1      -4.480   1.290   0.000  1.00  0.00     0.054 A 
ATOM      9  C   UNL     1      -5.075  -1.651   0.000  1.00  0.00     0.051 A 
ATOM     10  C   UNL     1      -5.902   0.812   0.000  1.00  0.00     0.166 A 
ATOM     11  C   UNL     1      -6.199  -0.658   0.000  1.00  0.00     0.165 A 
ATOM     12  O   UNL     1      -7.208   1.550   0.000  1.00  0.00    -0.454 OA
ATOM     13  O   UNL     1      -7.690  -0.829   0.000  1.00  0.00    -0.454 OA
ATOM     14  C   UNL     1      -8.313   0.535   0.000  1.00  0.00     0.468 C 
ENDBRANCH   5   6
ENDBRANCH   1   5
BRANCH   1  15
ATOM     15  C   UNL     1       0.613   0.259   0.000  1.00  0.00     0.025 C 
BRANCH  15  16
ATOM     16  C   UNL     1       0.911   1.729   0.000  1.00  0.00     0.160 C 
BRANCH  16  17
ATOM     17  O   UNL     1       2.333   2.206   0.000  1.00  0.00    -0.396 OA
ATOM     18  H   UNL     1       0.000   0.000   0.000  1.00  0.00     0.210 HD
ENDBRANCH  16  17
ENDBRANCH  15  16
BRANCH  15  19
ATOM     19  C   UNL     1       1.738  -0.734   0.000  1.00  0.00     0.042 C 
BRANCH  19  20
ATOM     20  C   UNL     1       3.159  -0.257   0.000  1.00  0.00    -0.044 A 
ATOM     21  C   UNL     1       3.457   1.213   0.000  1.00  0.00     0.008 A 
ATOM     22  C   UNL     1       4.284  -1.250   0.000  1.00  0.00     0.054 A 
ATOM     23  C   UNL     1       4.879   1.690   0.000  1.00  0.00     0.051 A 
ATOM     24  C   UNL     1       5.706  -0.772   0.000  1.00  0.00     0.166 A 
ATOM     25  C   UNL     1       6.003   0.698   0.000  1.00  0.00     0.165 A 
ATOM     26  O   UNL     1       7.012  -1.510   0.000  1.00  0.00    -0.454 OA
ATOM     27  O   UNL     1       7.494   0.869   0.000  1.00  0.00    -0.454 OA
ATOM     28  C   UNL     1       8.117  -0.495   0.000  1.00  0.00     0.468 C 
ENDBRANCH  19  20
ENDBRANCH  15  19
ENDBRANCH   1  15
TORSDOF 9
