REMARK SMILES C=C1CC[C@@H]2[C@H]([C@@H]3[C@H](C)CC[C@H]13)C2(C)C
REMARK SMILES IDX 7 1 8 2 9 3 10 4 11 5 12 6 2 7 1 8 3 9 6 11 5 12 13 13 14 14
REMARK SMILES IDX 15 15 4 16
REMARK H PARENT
REMARK Flexibility Score:    5.900
ROOT
ATOM      1  C   UNL     1      -0.316  -0.720   0.000  1.00  0.00     0.003 C 
ATOM      2  C   UNL     1      -0.656  -2.181   0.000  1.00  0.00    -0.010 C 
ATOM      3  C   UNL     1       0.327  -3.315   0.000  1.00  0.00     0.008 C 
ATOM      4  C   UNL     1      -2.150  -2.309   0.000  1.00  0.00     0.004 C 
ATOM      5  C   UNL     1      -2.734  -0.928   0.000  1.00  0.00     0.008 C 
ATOM      6  C   UNL     1      -1.600   0.054   0.000  1.00  0.00     0.018 C 
ENDROOT
BRANCH   6   7
ATOM      7  C   UNL     1      -1.795   1.542   0.000  1.00  0.00    -0.074 C 
ATOM      8  C   UNL     1      -3.220   2.011   0.000  1.00  0.00     0.008 C 
BRANCH   7   9
ATOM      9  C   UNL     1      -0.754   2.622   0.000  1.00  0.00     0.031 CG0
ATOM     10  G   UNL     1       0.739   2.481   0.000  1.00  0.00     0.000 G0
ENDBRANCH   7   9
ENDBRANCH   6   7
BRANCH   1  11
ATOM     11  C   UNL     1       1.091  -0.199   0.000  1.00  0.00     0.002 C 
ATOM     12  C   UNL     1       1.560   1.226   0.000  1.00  0.00    -0.001 C 
ATOM     13  C   UNL     1       2.559   0.107   0.000  1.00  0.00    -0.029 C 
ATOM     14  C   UNL     1       3.115  -1.286   0.000  1.00  0.00     0.011 C 
ATOM     15  C   UNL     1       3.835   0.896   0.000  1.00  0.00     0.011 C 
BRANCH  12  16
ATOM     16  C   UNL     1       0.739   2.481   0.000  1.00  0.00     0.009 CG0
ATOM     17  G   UNL     1      -0.754   2.622   0.000  1.00  0.00     0.000 G0
ENDBRANCH  12  16
ENDBRANCH   1  11
TORSDOF 0
