REMARK SMILES COc1ccc(-c2coc3cc(O)c(OC)c(O)c3c2=O)cc1O
REMARK SMILES IDX 7 1 8 2 9 3 10 4 11 5 12 6 14 7 17 8 19 9 20 10 21 11 6 12
REMARK SMILES IDX 3 13 4 14 23 15 5 16 22 17 2 18 1 19 24 20 18 22 15 24 16 25
REMARK SMILES IDX 13 26
REMARK H PARENT 24 21 18 23 13 27
ROOT
ATOM      1  C   UNL     1      -0.699  -0.716   0.000  1.00  0.00     0.065 A 
ATOM      2  C   UNL     1      -0.293  -2.160   0.000  1.00  0.00     0.208 A 
ATOM      3  O   UNL     1       1.160  -2.531   0.000  1.00  0.00    -0.463 OA
ATOM      4  C   UNL     1       2.208  -1.457   0.000  1.00  0.00     0.145 A 
ATOM      5  C   UNL     1       3.662  -1.828   0.000  1.00  0.00     0.098 A 
ATOM      6  C   UNL     1       4.710  -0.755   0.000  1.00  0.00     0.165 A 
ATOM      7  C   UNL     1       4.304   0.689   0.000  1.00  0.00     0.203 A 
ATOM      8  C   UNL     1       2.851   1.060   0.000  1.00  0.00     0.176 A 
ATOM      9  C   UNL     1       1.803  -0.013   0.000  1.00  0.00     0.111 A 
ATOM     10  C   UNL     1       0.349   0.358   0.000  1.00  0.00     0.204 A 
ATOM     11  O   UNL     1      -0.056   1.802   0.000  1.00  0.00    -0.288 OA
ENDROOT
BRANCH   1  12
ATOM     12  C   UNL     1      -2.152  -0.344   0.000  1.00  0.00    -0.007 A 
ATOM     13  C   UNL     1      -5.059   0.398   0.000  1.00  0.00     0.160 A 
ATOM     14  C   UNL     1      -4.011   1.471   0.000  1.00  0.00     0.051 A 
ATOM     15  C   UNL     1      -4.653  -1.047   0.000  1.00  0.00     0.158 A 
ATOM     16  C   UNL     1      -2.558   1.100   0.000  1.00  0.00     0.013 A 
ATOM     17  C   UNL     1      -3.200  -1.418   0.000  1.00  0.00     0.059 A 
BRANCH  13  18
ATOM     18  O   UNL     1      -6.512   0.768   0.000  1.00  0.00    -0.493 OA
ATOM     19  C   UNL     1      -6.918   2.213   0.000  1.00  0.00     0.278 C 
ENDBRANCH  13  18
BRANCH  15  20
ATOM     20  O   UNL     1      -5.701  -2.120   0.000  1.00  0.00    -0.504 OA
ATOM     21  H   UNL     1       0.000   0.000   0.000  1.00  0.00     0.293 HD
ENDBRANCH  15  20
ENDBRANCH   1  12
BRANCH   8  22
ATOM     22  O   UNL     1       2.445   2.504   0.000  1.00  0.00    -0.504 OA
ATOM     23  H   UNL     1       0.000   0.000   0.000  1.00  0.00     0.293 HD
ENDBRANCH   8  22
BRANCH   7  24
ATOM     24  O   UNL     1       5.352   1.762   0.000  1.00  0.00    -0.490 OA
ATOM     25  C   UNL     1       6.806   1.391   0.000  1.00  0.00     0.278 C 
ENDBRANCH   7  24
BRANCH   6  26
ATOM     26  O   UNL     1       6.163  -1.126   0.000  1.00  0.00    -0.504 OA
ATOM     27  H   UNL     1       0.000   0.000   0.000  1.00  0.00     0.293 HD
ENDBRANCH   6  26
TORSDOF 6
