REMARK SMILES C=CC[C@@]1(OC)C=C2C(=CC1=O)O[C@H](c1cc(OC)c(OC)c(OC)c1)[C@H]2C
REMARK SMILES IDX 4 1 7 2 8 3 9 4 10 5 11 6 12 7 13 8 14 9 27 10 28 11 3 12
REMARK SMILES IDX 2 13 1 14 5 15 6 16 15 17 16 18 26 19 17 20 23 21 20 22
REMARK SMILES IDX 18 23 19 24 24 25 25 26 21 27 22 28
REMARK H PARENT
ROOT
ATOM      1  C   UNL     1       4.376  -0.055   0.000  1.00  0.00     0.152 C 
ATOM      2  C   UNL     1       3.129  -0.889   0.000  1.00  0.00     0.024 C 
ATOM      3  C   UNL     1       1.784  -0.226   0.000  1.00  0.00     0.000 C 
ATOM      4  C   UNL     1       1.685   1.271   0.000  1.00  0.00     0.127 C 
ATOM      5  C   UNL     1       2.932   2.105   0.000  1.00  0.00     0.097 C 
ATOM      6  C   UNL     1       4.278   1.442   0.000  1.00  0.00     0.195 C 
ATOM      7  O   UNL     1       5.524   2.276   0.000  1.00  0.00    -0.291 OA
ATOM      8  O   UNL     1       0.231   1.640   0.000  1.00  0.00    -0.485 OA
ATOM      9  C   UNL     1      -0.569   0.371   0.000  1.00  0.00     0.211 C 
ATOM     10  C   UNL     1       0.391  -0.782   0.000  1.00  0.00     0.065 C 
ATOM     11  C   UNL     1       0.022  -2.236   0.000  1.00  0.00     0.017 C 
ENDROOT
BRANCH   1  12
ATOM     12  C   UNL     1       5.833   0.302   0.000  1.00  0.00     0.075 C 
BRANCH  12  13
ATOM     13  C   UNL     1       6.871  -0.781   0.000  1.00  0.00    -0.031 C 
ATOM     14  C   UNL     1       8.328  -0.424   0.000  1.00  0.00     0.004 C 
ENDBRANCH  12  13
ENDBRANCH   1  12
BRANCH   1  15
ATOM     15  O   UNL     1       4.981  -1.428   0.000  1.00  0.00    -0.366 OA
ATOM     16  C   UNL     1       4.094  -2.638   0.000  1.00  0.00     0.196 C 
ENDBRANCH   1  15
BRANCH   9  17
ATOM     17  C   UNL     1      -2.066   0.273   0.000  1.00  0.00     0.001 A 
ATOM     18  C   UNL     1      -2.899   1.519   0.000  1.00  0.00     0.058 A 
ATOM     19  C   UNL     1      -2.729  -1.073   0.000  1.00  0.00     0.058 A 
ATOM     20  C   UNL     1      -4.396   1.421   0.000  1.00  0.00     0.165 A 
ATOM     21  C   UNL     1      -4.225  -1.172   0.000  1.00  0.00     0.165 A 
ATOM     22  C   UNL     1      -5.059   0.075   0.000  1.00  0.00     0.203 A 
BRANCH  20  23
ATOM     23  O   UNL     1      -5.230   2.668   0.000  1.00  0.00    -0.493 OA
ATOM     24  C   UNL     1      -4.567   4.013   0.000  1.00  0.00     0.278 C 
ENDBRANCH  20  23
BRANCH  21  25
ATOM     25  O   UNL     1      -4.888  -2.517   0.000  1.00  0.00    -0.493 OA
ATOM     26  C   UNL     1      -4.055  -3.764   0.000  1.00  0.00     0.278 C 
ENDBRANCH  21  25
BRANCH  22  27
ATOM     27  O   UNL     1      -6.556  -0.023   0.000  1.00  0.00    -0.490 OA
ATOM     28  C   UNL     1      -7.219  -1.369   0.000  1.00  0.00     0.278 C 
ENDBRANCH  22  27
ENDBRANCH   9  17
TORSDOF 7
