REMARK SMILES COc1c(CCC(=O)O)ccc2c1C=CC(C)(C)O2
REMARK SMILES IDX 5 1 4 2 3 3 13 4 10 5 12 6 14 7 11 8 19 9 15 10 16 11 17 12
REMARK SMILES IDX 18 13 2 14 1 15 6 16 7 17 8 18 9 19
REMARK H PARENT 9 20
ROOT
ATOM      1  C   UNL     1      -2.644  -0.194   0.000  1.00  0.00     0.051 C 
ENDROOT
BRANCH   1   2
ATOM      2  C   UNL     1      -1.193   0.184   0.000  1.00  0.00    -0.004 A 
ATOM      3  C   UNL     1      -0.140  -0.884   0.000  1.00  0.00     0.133 A 
ATOM      4  C   UNL     1       1.312  -0.506   0.000  1.00  0.00     0.059 A 
ATOM      5  C   UNL     1      -0.794   1.630   0.000  1.00  0.00     0.011 A 
ATOM      6  C   UNL     1       1.711   0.940   0.000  1.00  0.00     0.131 A 
ATOM      7  C   UNL     1       2.365  -1.575   0.000  1.00  0.00     0.015 C 
ATOM      8  C   UNL     1       0.658   2.008   0.000  1.00  0.00     0.047 A 
ATOM      9  O   UNL     1       3.162   1.317   0.000  1.00  0.00    -0.483 OA
ATOM     10  C   UNL     1       3.817  -1.197   0.000  1.00  0.00     0.021 C 
ATOM     11  C   UNL     1       4.215   0.249   0.000  1.00  0.00     0.122 C 
ATOM     12  C   UNL     1       5.085   1.472   0.000  1.00  0.00     0.061 C 
ATOM     13  C   UNL     1       5.570  -0.395   0.000  1.00  0.00     0.061 C 
BRANCH   3  14
ATOM     14  O   UNL     1      -0.538  -2.330   0.000  1.00  0.00    -0.496 OA
ATOM     15  C   UNL     1      -1.990  -2.708   0.000  1.00  0.00     0.278 C 
ENDBRANCH   3  14
ENDBRANCH   1   2
BRANCH   1  16
ATOM     16  C   UNL     1      -3.697   0.875   0.000  1.00  0.00     0.127 C 
BRANCH  16  17
ATOM     17  C   UNL     1      -5.149   0.497   0.000  1.00  0.00     0.303 C 
ATOM     18  O   UNL     1      -5.548  -0.949   0.000  1.00  0.00    -0.252 OA
BRANCH  17  19
ATOM     19  O   UNL     1      -6.202   1.565   0.000  1.00  0.00    -0.481 OA
ATOM     20  H   UNL     1       0.000   0.000   0.000  1.00  0.00     0.296 HD
ENDBRANCH  17  19
ENDBRANCH  16  17
ENDBRANCH   1  16
TORSDOF 5
