REMARK SMILES C=C[C@]1(C)CC2=C([C@@H](O)C1)[C@@]1(C)CCCC(C)(C)[C@@H]1CC2=O
REMARK SMILES IDX 3 1 4 2 5 3 6 4 7 5 8 6 10 7 11 8 12 9 13 10 14 11 15 12
REMARK SMILES IDX 16 13 17 14 18 15 19 16 20 17 21 18 22 19 2 20 1 21 9 22
REMARK H PARENT 9 23
ROOT
ATOM      1  C   UNL     1      -3.341  -0.381   0.000  1.00  0.00    -0.008 C 
ATOM      2  C   UNL     1      -4.539  -1.284   0.000  1.00  0.00     0.016 C 
ATOM      3  C   UNL     1      -2.524   0.877   0.000  1.00  0.00     0.050 C 
ATOM      4  C   UNL     1      -1.026   0.798   0.000  1.00  0.00    -0.002 C 
ATOM      5  C   UNL     1      -0.345  -0.538   0.000  1.00  0.00    -0.029 C 
ATOM      6  C   UNL     1      -1.162  -1.796   0.000  1.00  0.00     0.142 C 
ATOM      7  C   UNL     1      -2.660  -1.718   0.000  1.00  0.00     0.047 C 
ATOM      8  C   UNL     1       1.153  -0.617   0.000  1.00  0.00    -0.005 C 
ATOM      9  C   UNL     1       0.336  -1.875   0.000  1.00  0.00     0.016 C 
ATOM     10  C   UNL     1       1.834  -1.954   0.000  1.00  0.00     0.011 C 
ATOM     11  C   UNL     1       3.332  -2.032   0.000  1.00  0.00     0.001 C 
ATOM     12  C   UNL     1       4.149  -0.774   0.000  1.00  0.00     0.007 C 
ATOM     13  C   UNL     1       3.468   0.562   0.000  1.00  0.00    -0.031 C 
ATOM     14  C   UNL     1       3.285   2.051   0.000  1.00  0.00     0.011 C 
ATOM     15  C   UNL     1       4.902   1.001   0.000  1.00  0.00     0.011 C 
ATOM     16  C   UNL     1       1.970   0.641   0.000  1.00  0.00     0.012 C 
ATOM     17  C   UNL     1       1.289   1.978   0.000  1.00  0.00     0.085 C 
ATOM     18  C   UNL     1      -0.209   2.056   0.000  1.00  0.00     0.159 C 
ATOM     19  O   UNL     1      -0.890   3.393   0.000  1.00  0.00    -0.295 OA
ENDROOT
BRANCH   1  20
ATOM     20  C   UNL     1      -4.438   0.642   0.000  1.00  0.00    -0.028 C 
ATOM     21  C   UNL     1      -4.101   2.103   0.000  1.00  0.00     0.004 C 
ENDBRANCH   1  20
BRANCH   6  22
ATOM     22  O   UNL     1      -0.481  -3.133   0.000  1.00  0.00    -0.389 OA
ATOM     23  H   UNL     1       0.000   0.000   0.000  1.00  0.00     0.211 HD
ENDBRANCH   6  22
TORSDOF 2
