REMARK SMILES CC(=O)OC[C@]12[C@H](OC(C)=O)[C@@H](O)[C@@H]3[C@@H](OC(C)=O)[C@@]14O[C@@]3(C)COC(=O)c1cccnc1C(C)C(C)C(=O)O[C@@H]([C@H](O)[C@@H]2OC(C)=O)[C@]4(C)O
REMARK SMILES IDX 24 1 22 2 6 3 7 4 20 5 44 6 12 7 15 8 21 9 49 10 42 11 14 12
REMARK SMILES IDX 41 13 50 14 23 15 5 16 4 17 2 18 1 19 3 20 8 21 9 22 10 23
REMARK SMILES IDX 11 24 45 25 46 26 47 27 48 28 13 29 16 31 17 32 18 33 19 34
REMARK SMILES IDX 51 35 43 37 40 39 38 40 39 41 36 42 37 43 25 45 26 46 27 47
REMARK SMILES IDX 28 48 29 49 33 50 30 51 32 52 31 53 34 54 35 55
REMARK H PARENT 13 30 51 36 43 38
REMARK Flexibility Score:   60.900
ROOT
ATOM      1  C   UNL     1       2.191  -3.283   0.000  1.00  0.00     0.269 C 
ENDROOT
BRANCH   1   2
ATOM      2  C   UNL     1       0.828  -2.657   0.000  1.00  0.00     0.110 C 
ATOM      3  C   UNL     1      -2.000  -0.204   0.000  1.00  0.00     0.119 C 
ATOM      4  C   UNL     1      -2.825  -1.457   0.000  1.00  0.00     0.222 C 
ATOM      5  C   UNL     1      -0.488  -0.045   0.000  1.00  0.00     0.154 C 
ATOM      6  C   UNL     1      -2.410   1.239   0.000  1.00  0.00     0.225 C 
ATOM      7  C   UNL     1      -2.152  -2.797   0.000  1.00  0.00     0.166 C 
ATOM      8  C   UNL     1      -1.330  -1.545   0.000  1.00  0.00     0.221 C 
ATOM      9  O   UNL     1      -0.128  -1.501   0.000  1.00  0.00    -0.357 OA
ATOM     10  C   UNL     1      -0.181   1.423   0.000  1.00  0.00     0.135 C 
ATOM     11  C   UNL     1      -1.365   2.316   0.000  1.00  0.00     0.200 C 
ATOM     12  C   UNL     1      -0.654  -2.885   0.000  1.00  0.00     0.101 C 
ATOM     13  C   UNL     1       0.733   2.613   0.000  1.00  0.00     0.243 C 
ATOM     14  C   UNL     1      -1.660   1.173   0.000  1.00  0.00     0.049 C 
ATOM     15  C   UNL     1      -0.086  -3.846   0.000  1.00  0.00     0.047 C 
BRANCH   3  16
ATOM     16  C   UNL     1      -2.673   1.137   0.000  1.00  0.00     0.251 C 
BRANCH  16  17
ATOM     17  O   UNL     1      -4.170   1.225   0.000  1.00  0.00    -0.465 OA
BRANCH  17  18
ATOM     18  C   UNL     1      -4.843   2.565   0.000  1.00  0.00     0.302 C 
ATOM     19  C   UNL     1      -6.341   2.653   0.000  1.00  0.00     0.139 C 
ATOM     20  O   UNL     1      -4.177   3.909   0.000  1.00  0.00    -0.253 OA
ENDBRANCH  17  18
ENDBRANCH  16  17
ENDBRANCH   3  16
BRANCH   4  21
ATOM     21  O   UNL     1      -4.322  -1.369   0.000  1.00  0.00    -0.459 OA
BRANCH  21  22
ATOM     22  C   UNL     1      -5.147  -2.622   0.000  1.00  0.00     0.303 C 
ATOM     23  C   UNL     1      -6.644  -2.534   0.000  1.00  0.00     0.139 C 
ATOM     24  O   UNL     1      -4.474  -3.963   0.000  1.00  0.00    -0.253 OA
ENDBRANCH  21  22
ENDBRANCH   4  21
BRANCH   6  25
ATOM     25  O   UNL     1      -3.865   1.606   0.000  1.00  0.00    -0.459 OA
BRANCH  25  26
ATOM     26  C   UNL     1      -4.274   3.049   0.000  1.00  0.00     0.303 C 
ATOM     27  C   UNL     1      -5.729   3.415   0.000  1.00  0.00     0.139 C 
ATOM     28  O   UNL     1      -3.106   3.990   0.000  1.00  0.00    -0.253 OA
ENDBRANCH  25  26
ENDBRANCH   6  25
BRANCH   7  29
ATOM     29  O   UNL     1      -2.818  -4.141   0.000  1.00  0.00    -0.389 OA
ATOM     30  H   UNL     1       0.000   0.000   0.000  1.00  0.00     0.211 HD
ENDBRANCH   7  29
BRANCH   8  31
ATOM     31  O   UNL     1      -2.810  -1.304   0.000  1.00  0.00    -0.459 OA
BRANCH  31  32
ATOM     32  C   UNL     1      -3.759  -2.466   0.000  1.00  0.00     0.303 C 
ATOM     33  C   UNL     1      -5.254  -2.590   0.000  1.00  0.00     0.139 C 
ATOM     34  O   UNL     1      -3.403  -3.923   0.000  1.00  0.00    -0.253 OA
ENDBRANCH  31  32
ENDBRANCH   8  31
BRANCH  10  35
ATOM     35  O   UNL     1      -1.242   2.483   0.000  1.00  0.00    -0.383 OA
ATOM     36  H   UNL     1       0.000   0.000   0.000  1.00  0.00     0.211 HD
ENDBRANCH  10  35
BRANCH  11  37
ATOM     37  O   UNL     1      -1.775   3.759   0.000  1.00  0.00    -0.385 OA
ATOM     38  H   UNL     1       0.000   0.000   0.000  1.00  0.00     0.211 HD
ENDBRANCH  11  37
BRANCH  13  39
ATOM     39  O   UNL     1       2.072   3.288   0.000  1.00  0.00    -0.456 OA
BRANCH  39  40
ATOM     40  C   UNL     1       3.572   3.315   0.000  1.00  0.00     0.309 C 
ATOM     41  O   UNL     1       3.880   4.783   0.000  1.00  0.00    -0.252 OA
BRANCH  40  42
ATOM     42  C   UNL     1       4.935   2.688   0.000  1.00  0.00     0.105 CG0
ATOM     43  C   UNL     1       5.849   3.878   0.000  1.00  0.00     0.020 C 
ATOM     44  G   UNL     1       5.891   1.533   0.000  1.00  0.00     0.000 G0
ENDBRANCH  40  42
ENDBRANCH  39  40
ENDBRANCH  13  39
ENDBRANCH   1   2
BRANCH   1  45
ATOM     45  O   UNL     1       3.691  -3.256   0.000  1.00  0.00    -0.459 OA
BRANCH  45  46
ATOM     46  C   UNL     1       5.030  -2.581   0.000  1.00  0.00     0.340 C 
ATOM     47  O   UNL     1       5.987  -3.737   0.000  1.00  0.00    -0.246 OA
BRANCH  46  48
ATOM     48  C   UNL     1       5.944  -1.392   0.000  1.00  0.00     0.081 A 
ATOM     49  C   UNL     1       7.062  -2.392   0.000  1.00  0.00     0.019 A 
ATOM     50  C   UNL     1       6.252   0.077   0.000  1.00  0.00     0.058 A 
ATOM     51  C   UNL     1       8.487  -1.924   0.000  1.00  0.00     0.021 A 
ATOM     52  N   UNL     1       7.677   0.544   0.000  1.00  0.00    -0.260 NA
ATOM     53  C   UNL     1       8.794  -0.456   0.000  1.00  0.00     0.111 A 
BRANCH  50  54
ATOM     54  C   UNL     1       5.891   1.533   0.000  1.00  0.00     0.050 CG0
ATOM     55  C   UNL     1       7.231   2.208   0.000  1.00  0.00     0.015 C 
ATOM     56  G   UNL     1       4.935   2.688   0.000  1.00  0.00     0.000 G0
ENDBRANCH  50  54
ENDBRANCH  46  48
ENDBRANCH  45  46
ENDBRANCH   1  45
TORSDOF 12
