REMARK SMILES COc1cc([C@H]2OC[C@H]3[C@@H]2CO[C@@H]3c2ccc(OC(C)=O)c(OC)c2)ccc1OC(C)=O
REMARK SMILES IDX 6 1 7 2 8 3 9 4 10 5 11 6 12 7 13 8 5 9 3 10 4 11 28 12
REMARK SMILES IDX 27 13 26 14 2 15 1 16 29 17 30 18 31 19 32 20 14 21 15 22
REMARK SMILES IDX 25 23 16 24 22 25 17 26 23 27 24 28 18 29 19 30 20 31 21 32
REMARK H PARENT
ROOT
ATOM      1  C   UNL     1       1.721  -0.627   0.000  1.00  0.00     0.154 C 
ATOM      2  O   UNL     1       1.050  -1.969   0.000  1.00  0.00    -0.373 OA
ATOM      3  C   UNL     1      -0.433  -1.745   0.000  1.00  0.00     0.168 C 
ATOM      4  C   UNL     1      -0.679  -0.266   0.000  1.00  0.00     0.057 C 
ATOM      5  C   UNL     1       0.652   0.426   0.000  1.00  0.00     0.057 C 
ATOM      6  C   UNL     1       0.406   1.905   0.000  1.00  0.00     0.168 C 
ATOM      7  O   UNL     1      -1.077   2.129   0.000  1.00  0.00    -0.373 OA
ATOM      8  C   UNL     1      -1.748   0.787   0.000  1.00  0.00     0.154 C 
ENDROOT
BRANCH   1   9
ATOM      9  C   UNL     1       3.201  -0.381   0.000  1.00  0.00    -0.015 A 
ATOM     10  C   UNL     1       5.633  -1.294   0.000  1.00  0.00     0.161 A 
ATOM     11  C   UNL     1       4.154  -1.540   0.000  1.00  0.00     0.056 A 
ATOM     12  C   UNL     1       6.160   0.111   0.000  1.00  0.00     0.172 A 
ATOM     13  C   UNL     1       5.207   1.269   0.000  1.00  0.00     0.051 A 
ATOM     14  C   UNL     1       3.728   1.023   0.000  1.00  0.00     0.010 A 
BRANCH  10  15
ATOM     15  O   UNL     1       6.586  -2.452   0.000  1.00  0.00    -0.493 OA
ATOM     16  C   UNL     1       6.059  -3.857   0.000  1.00  0.00     0.278 C 
ENDBRANCH  10  15
BRANCH  12  17
ATOM     17  O   UNL     1       7.640   0.356   0.000  1.00  0.00    -0.423 OA
BRANCH  17  18
ATOM     18  C   UNL     1       8.167   1.761   0.000  1.00  0.00     0.308 C 
ATOM     19  C   UNL     1       9.646   2.007   0.000  1.00  0.00     0.139 C 
ATOM     20  O   UNL     1       7.214   2.920   0.000  1.00  0.00    -0.252 OA
ENDBRANCH  17  18
ENDBRANCH  12  17
ENDBRANCH   1   9
BRANCH   8  21
ATOM     21  C   UNL     1      -3.227   0.541   0.000  1.00  0.00    -0.015 A 
ATOM     22  C   UNL     1      -4.180   1.700   0.000  1.00  0.00     0.010 A 
ATOM     23  C   UNL     1      -3.754  -0.863   0.000  1.00  0.00     0.056 A 
ATOM     24  C   UNL     1      -5.660   1.454   0.000  1.00  0.00     0.051 A 
ATOM     25  C   UNL     1      -5.234  -1.109   0.000  1.00  0.00     0.161 A 
ATOM     26  C   UNL     1      -6.187   0.050   0.000  1.00  0.00     0.172 A 
BRANCH  25  27
ATOM     27  O   UNL     1      -5.761  -2.513   0.000  1.00  0.00    -0.493 OA
ATOM     28  C   UNL     1      -4.808  -3.672   0.000  1.00  0.00     0.278 C 
ENDBRANCH  25  27
BRANCH  26  29
ATOM     29  O   UNL     1      -7.667  -0.196   0.000  1.00  0.00    -0.423 OA
BRANCH  29  30
ATOM     30  C   UNL     1      -8.619   0.962   0.000  1.00  0.00     0.308 C 
ATOM     31  C   UNL     1     -10.099   0.716   0.000  1.00  0.00     0.139 C 
ATOM     32  O   UNL     1      -8.092   2.367   0.000  1.00  0.00    -0.252 OA
ENDBRANCH  29  30
ENDBRANCH  26  29
ENDBRANCH   8  21
TORSDOF 8
