REMARK SMILES C/C(=C\C(=O)O)CC[C@H]1[C@]2(C)CCCC(C)(C)[C@H]2CC[C@@]1(C)O
REMARK SMILES IDX 1 1 2 2 3 3 4 4 5 5 6 6 7 8 8 9 9 10 10 11 21 12 12 13 18 14
REMARK SMILES IDX 20 15 13 16 15 17 19 18 14 19 11 20 22 21 16 22 17 23 23 24
REMARK H PARENT 6 7 23 25
ROOT
ATOM      1  C   UNL     1      -3.488  -1.813   0.000  1.00  0.00     0.040 C 
ATOM      2  C   UNL     1      -3.454  -0.314   0.000  1.00  0.00    -0.066 C 
ENDROOT
BRANCH   2   3
ATOM      3  C   UNL     1      -4.735   0.466   0.000  1.00  0.00     0.092 C 
BRANCH   3   4
ATOM      4  C   UNL     1      -6.051  -0.253   0.000  1.00  0.00     0.328 C 
ATOM      5  O   UNL     1      -6.086  -1.753   0.000  1.00  0.00    -0.247 OA
BRANCH   4   6
ATOM      6  O   UNL     1      -7.332   0.527   0.000  1.00  0.00    -0.478 OA
ATOM      7  H   UNL     1       0.000   0.000   0.000  1.00  0.00     0.297 HD
ENDBRANCH   4   6
ENDBRANCH   3   4
ENDBRANCH   2   3
BRANCH   2   8
ATOM      8  C   UNL     1      -2.137   0.406   0.000  1.00  0.00     0.031 C 
BRANCH   8   9
ATOM      9  C   UNL     1      -0.856  -0.374   0.000  1.00  0.00     0.011 C 
BRANCH   9  10
ATOM     10  C   UNL     1       0.460   0.346   0.000  1.00  0.00     0.027 C 
ATOM     11  C   UNL     1       1.741  -0.434   0.000  1.00  0.00    -0.024 C 
ATOM     12  C   UNL     1       0.495   1.846   0.000  1.00  0.00     0.065 C 
ATOM     13  C   UNL     1       1.706  -1.933   0.000  1.00  0.00     0.007 C 
ATOM     14  C   UNL     1       3.057   0.286   0.000  1.00  0.00     0.001 C 
ATOM     15  C   UNL     1       1.811   2.565   0.000  1.00  0.00     0.035 C 
ATOM     16  C   UNL     1       2.988  -2.713   0.000  1.00  0.00     0.001 C 
ATOM     17  C   UNL     1       4.339  -0.494   0.000  1.00  0.00    -0.032 C 
ATOM     18  C   UNL     1       3.092   1.785   0.000  1.00  0.00     0.007 C 
ATOM     19  C   UNL     1       4.304  -1.994   0.000  1.00  0.00     0.007 C 
ATOM     20  C   UNL     1       0.425  -1.154   0.000  1.00  0.00     0.012 C 
ATOM     21  C   UNL     1       0.015   3.267   0.000  1.00  0.00     0.042 C 
ATOM     22  C   UNL     1       4.884   0.903   0.000  1.00  0.00     0.011 C 
ATOM     23  C   UNL     1       5.809  -0.789   0.000  1.00  0.00     0.011 C 
BRANCH  12  24
ATOM     24  O   UNL     1      -0.988   1.619   0.000  1.00  0.00    -0.390 OA
ATOM     25  H   UNL     1       0.000   0.000   0.000  1.00  0.00     0.211 HD
ENDBRANCH  12  24
ENDBRANCH   9  10
ENDBRANCH   8   9
ENDBRANCH   2   8
TORSDOF 7
