REMARK SMILES C=CCCCCCCCCCC
REMARK SMILES IDX 6 1 5 2 4 3 3 4 2 5 1 6 7 7 8 8 9 9 10 10 11 11 12 12
REMARK H PARENT
ROOT
ATOM      1  C   UNL     1      -0.645   0.383   0.000  1.00  0.00     0.000 C 
ENDROOT
BRANCH   1   2
ATOM      2  C   UNL     1      -1.953  -0.351   0.000  1.00  0.00     0.000 C 
BRANCH   2   3
ATOM      3  C   UNL     1      -3.243   0.415   0.000  1.00  0.00     0.004 C 
BRANCH   3   4
ATOM      4  C   UNL     1      -4.551  -0.320   0.000  1.00  0.00     0.027 C 
BRANCH   4   5
ATOM      5  C   UNL     1      -5.841   0.446   0.000  1.00  0.00    -0.035 C 
ATOM      6  C   UNL     1      -7.149  -0.288   0.000  1.00  0.00     0.004 C 
ENDBRANCH   4   5
ENDBRANCH   3   4
ENDBRANCH   2   3
ENDBRANCH   1   2
BRANCH   1   7
ATOM      7  C   UNL     1       0.645  -0.383   0.000  1.00  0.00     0.000 C 
BRANCH   7   8
ATOM      8  C   UNL     1       1.953   0.351   0.000  1.00  0.00    -0.000 C 
BRANCH   8   9
ATOM      9  C   UNL     1       3.243  -0.415   0.000  1.00  0.00    -0.000 C 
BRANCH   9  10
ATOM     10  C   UNL     1       4.551   0.320   0.000  1.00  0.00    -0.000 C 
BRANCH  10  11
ATOM     11  C   UNL     1       5.841  -0.446   0.000  1.00  0.00    -0.003 C 
ATOM     12  C   UNL     1       7.149   0.288   0.000  1.00  0.00     0.004 C 
ENDBRANCH  10  11
ENDBRANCH   9  10
ENDBRANCH   8   9
ENDBRANCH   7   8
ENDBRANCH   1   7
TORSDOF 9
