REMARK SMILES O=C(O)c1ccc(O)c(O)c1
REMARK SMILES IDX 4 1 5 2 6 3 7 4 9 5 11 6 2 7 1 8 3 9 10 11 8 13
REMARK H PARENT 3 10 10 12 8 14
ROOT
ATOM      1  C   UNL     1      -0.979   0.096   0.000  1.00  0.00     0.063 A 
ATOM      2  C   UNL     1      -0.424   1.490   0.000  1.00  0.00     0.020 A 
ATOM      3  C   UNL     1       1.060   1.706   0.000  1.00  0.00     0.051 A 
ATOM      4  C   UNL     1       1.990   0.529   0.000  1.00  0.00     0.157 A 
ATOM      5  C   UNL     1       1.435  -0.864   0.000  1.00  0.00     0.158 A 
ATOM      6  C   UNL     1      -0.049  -1.081   0.000  1.00  0.00     0.065 A 
ENDROOT
BRANCH   1   7
ATOM      7  C   UNL     1      -2.463  -0.121   0.000  1.00  0.00     0.335 C 
ATOM      8  O   UNL     1      -3.017  -1.515   0.000  1.00  0.00    -0.246 OA
BRANCH   7   9
ATOM      9  O   UNL     1      -3.393   1.056   0.000  1.00  0.00    -0.478 OA
ATOM     10  H   UNL     1       0.000   0.000   0.000  1.00  0.00     0.297 HD
ENDBRANCH   7   9
ENDBRANCH   1   7
BRANCH   5  11
ATOM     11  O   UNL     1       2.365  -2.041   0.000  1.00  0.00    -0.504 OA
ATOM     12  H   UNL     1       0.000   0.000   0.000  1.00  0.00     0.293 HD
ENDBRANCH   5  11
BRANCH   4  13
ATOM     13  O   UNL     1       3.474   0.746   0.000  1.00  0.00    -0.504 OA
ATOM     14  H   UNL     1       0.000   0.000   0.000  1.00  0.00     0.293 HD
ENDBRANCH   4  13
TORSDOF 4
