REMARK SMILES C=C1C(=O)O[C@@H]2/C=C(/CO)C3=C(Cc4c(O)c(C)cc(C(C)=O)c4O)C(=O)[C@@](C)(C[C@@H](OC(=O)C(C)=CC)[C@H]12)O3
REMARK SMILES IDX 30 1 28 2 11 3 12 4 40 5 26 6 27 7 29 8 8 9 7 10 6 11 2 12
REMARK SMILES IDX 3 13 39 14 5 15 1 16 4 17 9 19 10 20 13 22 14 23 15 24 24 25
REMARK SMILES IDX 17 26 20 27 19 28 18 29 16 30 25 32 21 34 22 35 23 36 31 37
REMARK SMILES IDX 32 39 33 40 34 41 35 42 36 43 37 44 38 45
REMARK H PARENT 10 21 16 31 25 33
REMARK Flexibility Score:   83.900
ROOT
ATOM      1  C   UNL     1       2.583  -1.361   0.000  1.00  0.00     0.103 C 
ENDROOT
BRANCH   1   2
ATOM      2  C   UNL     1       1.183  -1.899   0.000  1.00  0.00     0.172 C 
ATOM      3  C   UNL     1      -1.009  -0.127   0.000  1.00  0.00     0.133 C 
ATOM      4  C   UNL     1      -1.546  -1.527   0.000  1.00  0.00     0.046 C 
ATOM      5  O   UNL     1      -0.236  -1.412   0.000  1.00  0.00    -0.478 OA
ATOM      6  C   UNL     1      -0.380  -2.470   0.000  1.00  0.00     0.206 C 
ATOM      7  O   UNL     1      -0.457  -3.969   0.000  1.00  0.00    -0.290 OA
ATOM      8  C   UNL     1       1.210  -3.399   0.000  1.00  0.00     0.066 C 
BRANCH   3   9
ATOM      9  C   UNL     1      -0.775   1.355   0.000  1.00  0.00     0.020 C 
BRANCH   9  10
ATOM     10  C   UNL     1       0.356   2.340   0.000  1.00  0.00     0.028 C 
BRANCH  10  11
ATOM     11  C   UNL     1       1.856   2.367   0.000  1.00  0.00     0.212 C 
ATOM     12  C   UNL     1       4.279   2.241   0.000  1.00  0.00     0.041 C 
ATOM     13  C   UNL     1       3.890   3.690   0.000  1.00  0.00     0.334 C 
ATOM     14  C   UNL     1       3.022   1.424   0.000  1.00  0.00     0.112 CG0
ATOM     15  O   UNL     1       2.392   3.768   0.000  1.00  0.00    -0.454 OA
ATOM     16  C   UNL     1       5.680   1.705   0.000  1.00  0.00     0.021 C 
ATOM     17  O   UNL     1       4.834   4.856   0.000  1.00  0.00    -0.247 OA
ATOM     18  G   UNL     1       3.309  -0.049   0.000  1.00  0.00     0.000 G0
ENDBRANCH  10  11
ENDBRANCH   9  10
BRANCH   9  19
ATOM     19  C   UNL     1      -2.088   2.082   0.000  1.00  0.00     0.195 C 
BRANCH  19  20
ATOM     20  O   UNL     1      -2.115   3.581   0.000  1.00  0.00    -0.392 OA
ATOM     21  H   UNL     1       0.000   0.000   0.000  1.00  0.00     0.211 HD
ENDBRANCH  19  20
ENDBRANCH   9  19
ENDBRANCH   3   9
BRANCH   4  22
ATOM     22  C   UNL     1      -2.995  -1.916   0.000  1.00  0.00     0.086 C 
BRANCH  22  23
ATOM     23  C   UNL     1      -4.056  -0.856   0.000  1.00  0.00     0.041 A 
ATOM     24  C   UNL     1      -3.668   0.593   0.000  1.00  0.00     0.125 A 
ATOM     25  C   UNL     1      -5.505  -1.246   0.000  1.00  0.00     0.133 A 
ATOM     26  C   UNL     1      -4.730   1.653   0.000  1.00  0.00    -0.008 A 
ATOM     27  C   UNL     1      -6.566  -0.185   0.000  1.00  0.00     0.060 A 
ATOM     28  C   UNL     1      -6.178   1.264   0.000  1.00  0.00     0.023 A 
ATOM     29  C   UNL     1      -4.343   3.102   0.000  1.00  0.00     0.048 C 
BRANCH  24  30
ATOM     30  O   UNL     1      -2.220   0.982   0.000  1.00  0.00    -0.507 OA
ATOM     31  H   UNL     1       0.000   0.000   0.000  1.00  0.00     0.293 HD
ENDBRANCH  24  30
BRANCH  25  32
ATOM     32  O   UNL     1      -5.892  -2.695   0.000  1.00  0.00    -0.507 OA
ATOM     33  H   UNL     1       0.000   0.000   0.000  1.00  0.00     0.293 HD
ENDBRANCH  25  32
BRANCH  27  34
ATOM     34  C   UNL     1      -8.014  -0.575   0.000  1.00  0.00     0.163 C 
ATOM     35  C   UNL     1      -9.076   0.485   0.000  1.00  0.00     0.093 C 
ATOM     36  O   UNL     1      -8.402  -2.024   0.000  1.00  0.00    -0.294 OA
ENDBRANCH  27  34
ENDBRANCH  22  23
ENDBRANCH   4  22
ENDBRANCH   1   2
BRANCH   1  37
ATOM     37  C   UNL     1       3.309  -0.049   0.000  1.00  0.00     0.193 CG0
ATOM     38  G   UNL     1       3.022   1.424   0.000  1.00  0.00     0.000 G0
BRANCH  37  39
ATOM     39  O   UNL     1       4.791  -0.282   0.000  1.00  0.00    -0.458 OA
BRANCH  39  40
ATOM     40  C   UNL     1       5.329  -1.682   0.000  1.00  0.00     0.333 C 
ATOM     41  O   UNL     1       4.386  -2.849   0.000  1.00  0.00    -0.247 OA
BRANCH  40  42
ATOM     42  C   UNL     1       6.811  -1.916   0.000  1.00  0.00     0.030 C 
ATOM     43  C   UNL     1       7.349  -3.316   0.000  1.00  0.00     0.052 C 
BRANCH  42  44
ATOM     44  C   UNL     1       7.754  -0.750   0.000  1.00  0.00    -0.020 C 
ATOM     45  C   UNL     1       9.236  -0.984   0.000  1.00  0.00     0.036 C 
ENDBRANCH  42  44
ENDBRANCH  40  42
ENDBRANCH  39  40
ENDBRANCH  37  39
ENDBRANCH   1  37
TORSDOF 11
