REMARK SMILES C[C@]12C(=O)O[C@@H]3C[C@@H]4C(CCC[C@H]4O)[C@@]4(CC[C@@]1(O)OC4)C32
REMARK SMILES IDX 1 1 2 2 3 3 4 4 5 5 6 6 7 7 8 8 9 9 10 10 11 11 12 12 13 13
REMARK SMILES IDX 15 14 16 15 17 16 18 17 20 18 21 19 22 20 19 21 14 23
REMARK H PARENT 19 22 14 24
ROOT
ATOM      1  C   UNL     1       3.507   0.322   0.000  1.00  0.00     0.030 C 
ATOM      2  C   UNL     1       2.010   0.233   0.000  1.00  0.00     0.126 C 
ATOM      3  C   UNL     1       2.537   1.637   0.000  1.00  0.00     0.318 C 
ATOM      4  O   UNL     1       3.983   2.036   0.000  1.00  0.00    -0.251 OA
ATOM      5  O   UNL     1       1.365   2.572   0.000  1.00  0.00    -0.461 OA
ATOM      6  C   UNL     1       0.113   1.746   0.000  1.00  0.00     0.182 C 
ATOM      7  C   UNL     1      -1.392   1.829   0.000  1.00  0.00     0.052 C 
ATOM      8  C   UNL     1      -2.327   0.656   0.000  1.00  0.00     0.025 C 
ATOM      9  C   UNL     1      -1.779  -0.740   0.000  1.00  0.00     0.004 C 
ATOM     10  C   UNL     1      -2.715  -1.913   0.000  1.00  0.00     0.005 C 
ATOM     11  C   UNL     1      -4.198  -1.689   0.000  1.00  0.00     0.003 C 
ATOM     12  C   UNL     1      -4.746  -0.293   0.000  1.00  0.00     0.032 C 
ATOM     13  C   UNL     1      -3.811   0.880   0.000  1.00  0.00     0.118 C 
ATOM     14  C   UNL     1      -0.296  -0.964   0.000  1.00  0.00     0.005 C 
ATOM     15  C   UNL     1       0.395  -2.296   0.000  1.00  0.00     0.016 C 
ATOM     16  C   UNL     1       1.893  -2.363   0.000  1.00  0.00     0.067 C 
ATOM     17  C   UNL     1       2.701  -1.099   0.000  1.00  0.00     0.181 C 
ATOM     18  O   UNL     1       1.882  -1.012   0.000  1.00  0.00    -0.348 OA
ATOM     19  C   UNL     1       0.527  -0.951   0.000  1.00  0.00     0.171 C 
ATOM     20  C   UNL     1       0.511   0.300   0.000  1.00  0.00     0.061 C 
ENDROOT
BRANCH  17  21
ATOM     21  O   UNL     1       4.199  -1.166   0.000  1.00  0.00    -0.365 OA
ATOM     22  H   UNL     1       0.000   0.000   0.000  1.00  0.00     0.214 HD
ENDBRANCH  17  21
BRANCH  13  23
ATOM     23  O   UNL     1      -4.358   2.276   0.000  1.00  0.00    -0.393 OA
ATOM     24  H   UNL     1       0.000   0.000   0.000  1.00  0.00     0.210 HD
ENDBRANCH  13  23
TORSDOF 2
