REMARK SMILES COc1cc2[nH]c3ccccc3c(=O)c2c(O)c1OC
REMARK SMILES IDX 3 1 4 2 5 3 15 4 16 5 18 6 13 7 14 8 12 9 11 10 10 11 9 12
REMARK SMILES IDX 8 13 7 14 6 15 2 17 1 18 19 19 20 20 17 21
REMARK H PARENT 6 16 17 22
ROOT
ATOM      1  C   UNL     1      -2.708   0.798   0.000  1.00  0.00     0.166 A 
ATOM      2  C   UNL     1      -1.450   1.614   0.000  1.00  0.00     0.077 A 
ATOM      3  C   UNL     1      -0.114   0.933   0.000  1.00  0.00     0.058 A 
ATOM      4  C   UNL     1      -0.036  -0.565   0.000  1.00  0.00     0.092 A 
ATOM      5  C   UNL     1      -1.294  -1.382   0.000  1.00  0.00     0.175 A 
ATOM      6  C   UNL     1      -2.630  -0.700   0.000  1.00  0.00     0.203 A 
ATOM      7  C   UNL     1       1.301  -1.247   0.000  1.00  0.00     0.201 A 
ATOM      8  O   UNL     1       1.379  -2.744   0.000  1.00  0.00    -0.288 OA
ATOM      9  C   UNL     1       2.559  -0.430   0.000  1.00  0.00     0.046 A 
ATOM     10  C   UNL     1       3.895  -1.111   0.000  1.00  0.00     0.014 A 
ATOM     11  C   UNL     1       5.154  -0.295   0.000  1.00  0.00     0.001 A 
ATOM     12  C   UNL     1       5.075   1.203   0.000  1.00  0.00     0.002 A 
ATOM     13  C   UNL     1       3.739   1.885   0.000  1.00  0.00     0.027 A 
ATOM     14  C   UNL     1       2.481   1.068   0.000  1.00  0.00     0.050 A 
ATOM     15  N   UNL     1       1.145   1.749   0.000  1.00  0.00    -0.354 N 
ATOM     16  H   UNL     1       0.000   0.000   0.000  1.00  0.00     0.167 HD
ENDROOT
BRANCH   1  17
ATOM     17  O   UNL     1      -4.045   1.479   0.000  1.00  0.00    -0.493 OA
ATOM     18  C   UNL     1      -4.122   2.977   0.000  1.00  0.00     0.278 C 
ENDBRANCH   1  17
BRANCH   6  19
ATOM     19  O   UNL     1      -3.889  -1.517   0.000  1.00  0.00    -0.490 OA
ATOM     20  C   UNL     1      -5.225  -0.835   0.000  1.00  0.00     0.278 C 
ENDBRANCH   6  19
BRANCH   5  21
ATOM     21  O   UNL     1      -1.216  -2.880   0.000  1.00  0.00    -0.504 OA
ATOM     22  H   UNL     1       0.000   0.000   0.000  1.00  0.00     0.293 HD
ENDBRANCH   5  21
TORSDOF 3
