REMARK SMILES CCCCCCCCCCCC(=O)O
REMARK SMILES IDX 7 1 6 2 5 3 4 4 3 5 2 6 1 7 8 8 9 9 10 10 11 11 12 12 13 13
REMARK SMILES IDX 14 14
REMARK H PARENT 14 15
ROOT
ATOM      1  C   UNL     1      -0.480  -0.466   0.000  1.00  0.00     0.000 C 
ENDROOT
BRANCH   1   2
ATOM      2  C   UNL     1      -1.753   0.327   0.000  1.00  0.00     0.000 C 
BRANCH   2   3
ATOM      3  C   UNL     1      -3.076  -0.379   0.000  1.00  0.00    -0.000 C 
BRANCH   3   4
ATOM      4  C   UNL     1      -4.350   0.414   0.000  1.00  0.00    -0.000 C 
BRANCH   4   5
ATOM      5  C   UNL     1      -5.673  -0.292   0.000  1.00  0.00    -0.000 C 
BRANCH   5   6
ATOM      6  C   UNL     1      -6.946   0.502   0.000  1.00  0.00    -0.003 C 
ATOM      7  C   UNL     1      -8.270  -0.204   0.000  1.00  0.00     0.004 C 
ENDBRANCH   5   6
ENDBRANCH   4   5
ENDBRANCH   3   4
ENDBRANCH   2   3
ENDBRANCH   1   2
BRANCH   1   8
ATOM      8  C   UNL     1       0.844   0.240   0.000  1.00  0.00     0.000 C 
BRANCH   8   9
ATOM      9  C   UNL     1       2.117  -0.554   0.000  1.00  0.00     0.001 C 
BRANCH   9  10
ATOM     10  C   UNL     1       3.440   0.152   0.000  1.00  0.00     0.012 C 
BRANCH  10  11
ATOM     11  C   UNL     1       4.713  -0.641   0.000  1.00  0.00     0.122 C 
BRANCH  11  12
ATOM     12  C   UNL     1       6.037   0.065   0.000  1.00  0.00     0.303 C 
ATOM     13  O   UNL     1       6.087   1.564   0.000  1.00  0.00    -0.252 OA
BRANCH  12  14
ATOM     14  O   UNL     1       7.310  -0.728   0.000  1.00  0.00    -0.481 OA
ATOM     15  H   UNL     1       0.000   0.000   0.000  1.00  0.00     0.296 HD
ENDBRANCH  12  14
ENDBRANCH  11  12
ENDBRANCH  10  11
ENDBRANCH   9  10
ENDBRANCH   8   9
ENDBRANCH   1   8
TORSDOF 11
