REMARK SMILES CC1=CC[C@]2(C)CCCC(C)(C)[C@@]23C[C@@H]13
REMARK SMILES IDX 1 1 2 2 3 3 4 4 5 5 6 6 7 7 8 8 9 9 10 10 11 11 12 12 13 13
REMARK SMILES IDX 14 14 15 15
REMARK H PARENT
ROOT
ATOM      1  C   UNL     1      -3.659  -1.536   0.000  1.00  0.00     0.039 C 
ATOM      2  C   UNL     1      -2.471  -0.619   0.000  1.00  0.00    -0.074 C 
ATOM      3  C   UNL     1      -2.672   0.868   0.000  1.00  0.00    -0.027 C 
ATOM      4  C   UNL     1      -1.484   1.784   0.000  1.00  0.00     0.034 C 
ATOM      5  C   UNL     1      -0.097   1.214   0.000  1.00  0.00    -0.022 C 
ATOM      6  C   UNL     1      -0.297   2.701   0.000  1.00  0.00     0.012 C 
ATOM      7  C   UNL     1       1.091   2.131   0.000  1.00  0.00     0.008 C 
ATOM      8  C   UNL     1       2.478   1.561   0.000  1.00  0.00     0.001 C 
ATOM      9  C   UNL     1       2.678   0.075   0.000  1.00  0.00     0.007 C 
ATOM     10  C   UNL     1       1.491  -0.842   0.000  1.00  0.00    -0.029 C 
ATOM     11  C   UNL     1       1.019  -2.266   0.000  1.00  0.00     0.012 C 
ATOM     12  C   UNL     1       2.600  -1.852   0.000  1.00  0.00     0.012 C 
ATOM     13  C   UNL     1       0.103  -0.272   0.000  1.00  0.00    -0.012 C 
ATOM     14  C   UNL     1       0.304  -1.759   0.000  1.00  0.00     0.017 C 
ATOM     15  C   UNL     1      -1.084  -1.189   0.000  1.00  0.00     0.022 C 
ENDROOT
TORSDOF 0
