REMARK SMILES COc1cc2c(=O)oc3c(OC)c(O[C@@H]4O[C@H](COC(C)=O)[C@@H](O)[C@H](OC(C)=O)[C@H]4O)cc4c(=O)oc(c1O)c2c34
REMARK SMILES IDX 15 1 16 2 17 3 23 4 25 5 30 6 14 7 13 8 3 9 4 10 38 11 5 12
REMARK SMILES IDX 37 13 40 14 6 15 36 16 41 17 8 18 34 19 9 20 33 21 10 22
REMARK SMILES IDX 32 23 7 24 35 25 2 26 1 27 39 28 11 30 12 31 31 32 18 34
REMARK SMILES IDX 19 35 20 36 21 37 22 38 26 39 27 40 28 41 29 42 24 43
REMARK H PARENT 39 29 31 33 24 44
ROOT
ATOM      1  C   UNL     1       3.082   0.794   0.000  1.00  0.00     0.340 C 
ATOM      2  O   UNL     1       2.680  -0.651   0.000  1.00  0.00    -0.331 OA
ATOM      3  C   UNL     1       3.730  -1.722   0.000  1.00  0.00     0.193 C 
ATOM      4  C   UNL     1       5.183  -1.348   0.000  1.00  0.00     0.190 C 
ATOM      5  C   UNL     1       5.585   0.097   0.000  1.00  0.00     0.242 C 
ATOM      6  C   UNL     1       4.535   1.168   0.000  1.00  0.00     0.226 C 
ENDROOT
BRANCH   1   7
ATOM      7  O   UNL     1       2.032   1.865   0.000  1.00  0.00    -0.458 OA
BRANCH   7   8
ATOM      8  C   UNL     1       0.580   1.491   0.000  1.00  0.00     0.169 A 
ATOM      9  C   UNL     1      -6.684  -0.380   0.000  1.00  0.00     0.165 A 
ATOM     10  C   UNL     1      -6.281   1.065   0.000  1.00  0.00     0.067 A 
ATOM     11  C   UNL     1      -5.633  -1.450   0.000  1.00  0.00     0.202 A 
ATOM     12  C   UNL     1      -4.829   1.440   0.000  1.00  0.00     0.076 A 
ATOM     13  C   UNL     1      -4.181  -1.077   0.000  1.00  0.00     0.185 A 
ATOM     14  C   UNL     1      -3.778   0.368   0.000  1.00  0.00     0.048 A 
ATOM     15  C   UNL     1      -4.426   2.885   0.000  1.00  0.00     0.344 A 
ATOM     16  O   UNL     1      -3.131  -2.147   0.000  1.00  0.00    -0.418 OA
ATOM     17  C   UNL     1      -2.326   0.743   0.000  1.00  0.00     0.048 A 
ATOM     18  O   UNL     1      -2.974   3.259   0.000  1.00  0.00    -0.418 OA
ATOM     19  C   UNL     1      -1.678  -1.773   0.000  1.00  0.00     0.344 A 
ATOM     20  C   UNL     1      -1.923   2.188   0.000  1.00  0.00     0.185 A 
ATOM     21  C   UNL     1      -1.276  -0.328   0.000  1.00  0.00     0.076 A 
ATOM     22  C   UNL     1      -0.471   2.562   0.000  1.00  0.00     0.204 A 
ATOM     23  C   UNL     1       0.177   0.046   0.000  1.00  0.00     0.067 A 
ATOM     24  O   UNL     1      -5.476   3.955   0.000  1.00  0.00    -0.246 OA
ATOM     25  O   UNL     1      -0.628  -2.844   0.000  1.00  0.00    -0.246 OA
BRANCH   9  26
ATOM     26  O   UNL     1      -8.136  -0.753   0.000  1.00  0.00    -0.493 OA
ATOM     27  C   UNL     1      -9.186   0.318   0.000  1.00  0.00     0.278 C 
ENDBRANCH   9  26
BRANCH  11  28
ATOM     28  O   UNL     1      -6.036  -2.896   0.000  1.00  0.00    -0.502 OA
ATOM     29  H   UNL     1       0.000   0.000   0.000  1.00  0.00     0.293 HD
ENDBRANCH  11  28
BRANCH  22  30
ATOM     30  O   UNL     1      -0.068   4.007   0.000  1.00  0.00    -0.490 OA
ATOM     31  C   UNL     1       1.384   4.381   0.000  1.00  0.00     0.278 C 
ENDBRANCH  22  30
ENDBRANCH   7   8
ENDBRANCH   1   7
BRANCH   6  32
ATOM     32  O   UNL     1       4.937   2.613   0.000  1.00  0.00    -0.383 OA
ATOM     33  H   UNL     1       0.000   0.000   0.000  1.00  0.00     0.211 HD
ENDBRANCH   6  32
BRANCH   3  34
ATOM     34  C   UNL     1       3.328  -3.167   0.000  1.00  0.00     0.267 C 
BRANCH  34  35
ATOM     35  O   UNL     1       1.875  -3.541   0.000  1.00  0.00    -0.463 OA
BRANCH  35  36
ATOM     36  C   UNL     1       1.473  -4.986   0.000  1.00  0.00     0.302 C 
ATOM     37  C   UNL     1       0.020  -5.360   0.000  1.00  0.00     0.139 C 
ATOM     38  O   UNL     1       2.523  -6.057   0.000  1.00  0.00    -0.253 OA
ENDBRANCH  35  36
ENDBRANCH  34  35
ENDBRANCH   3  34
BRANCH   5  39
ATOM     39  O   UNL     1       7.038   0.471   0.000  1.00  0.00    -0.457 OA
BRANCH  39  40
ATOM     40  C   UNL     1       7.440   1.916   0.000  1.00  0.00     0.303 C 
ATOM     41  C   UNL     1       8.893   2.290   0.000  1.00  0.00     0.139 C 
ATOM     42  O   UNL     1       6.390   2.987   0.000  1.00  0.00    -0.253 OA
ENDBRANCH  39  40
ENDBRANCH   5  39
BRANCH   4  43
ATOM     43  O   UNL     1       6.233  -2.419   0.000  1.00  0.00    -0.386 OA
ATOM     44  H   UNL     1       0.000   0.000   0.000  1.00  0.00     0.211 HD
ENDBRANCH   4  43
TORSDOF 12
