REMARK SMILES COc1ccc(-c2coc3cc(OC)c(OC)cc3c2=O)cc1OC
REMARK SMILES IDX 7 1 8 2 9 3 10 4 11 5 12 6 15 7 18 8 19 9 20 10 21 11 6 12
REMARK SMILES IDX 3 13 4 14 23 15 5 16 22 17 2 18 1 19 24 20 25 21 16 22 17 23
REMARK SMILES IDX 13 24 14 25
REMARK H PARENT
ROOT
ATOM      1  C   UNL     1      -0.647  -0.377   0.000  1.00  0.00     0.065 A 
ATOM      2  C   UNL     1      -0.226  -1.817   0.000  1.00  0.00     0.208 A 
ATOM      3  O   UNL     1       1.232  -2.171   0.000  1.00  0.00    -0.463 OA
ATOM      4  C   UNL     1       2.268  -1.086   0.000  1.00  0.00     0.141 A 
ATOM      5  C   UNL     1       3.725  -1.441   0.000  1.00  0.00     0.098 A 
ATOM      6  C   UNL     1       4.761  -0.356   0.000  1.00  0.00     0.164 A 
ATOM      7  C   UNL     1       4.339   1.083   0.000  1.00  0.00     0.161 A 
ATOM      8  C   UNL     1       2.882   1.438   0.000  1.00  0.00     0.066 A 
ATOM      9  C   UNL     1       1.846   0.353   0.000  1.00  0.00     0.069 A 
ATOM     10  C   UNL     1       0.388   0.708   0.000  1.00  0.00     0.200 A 
ATOM     11  O   UNL     1      -0.033   2.147   0.000  1.00  0.00    -0.288 OA
ENDROOT
BRANCH   1  12
ATOM     12  C   UNL     1      -2.105  -0.023   0.000  1.00  0.00    -0.007 A 
ATOM     13  C   UNL     1      -5.020   0.686   0.000  1.00  0.00     0.160 A 
ATOM     14  C   UNL     1      -3.984   1.771   0.000  1.00  0.00     0.051 A 
ATOM     15  C   UNL     1      -4.598  -0.753   0.000  1.00  0.00     0.161 A 
ATOM     16  C   UNL     1      -2.527   1.417   0.000  1.00  0.00     0.013 A 
ATOM     17  C   UNL     1      -3.141  -1.108   0.000  1.00  0.00     0.059 A 
BRANCH  13  18
ATOM     18  O   UNL     1      -6.478   1.041   0.000  1.00  0.00    -0.493 OA
ATOM     19  C   UNL     1      -6.899   2.481   0.000  1.00  0.00     0.278 C 
ENDBRANCH  13  18
BRANCH  15  20
ATOM     20  O   UNL     1      -5.634  -1.838   0.000  1.00  0.00    -0.493 OA
ATOM     21  C   UNL     1      -5.212  -3.277   0.000  1.00  0.00     0.278 C 
ENDBRANCH  15  20
ENDBRANCH   1  12
BRANCH   7  22
ATOM     22  O   UNL     1       5.375   2.168   0.000  1.00  0.00    -0.493 OA
ATOM     23  C   UNL     1       6.832   1.814   0.000  1.00  0.00     0.278 C 
ENDBRANCH   7  22
BRANCH   6  24
ATOM     24  O   UNL     1       6.218  -0.711   0.000  1.00  0.00    -0.493 OA
ATOM     25  C   UNL     1       6.640  -2.150   0.000  1.00  0.00     0.278 C 
ENDBRANCH   6  24
TORSDOF 5
