REMARK SMILES C1=CSSC1
REMARK SMILES IDX 1 1 2 2 3 3 4 4 5 5
REMARK H PARENT
ROOT
ATOM      1  C   UNL     1       1.276  -0.000   0.000  1.00  0.00    -0.007 C 
ATOM      2  C   UNL     1       0.394   1.214   0.000  1.00  0.00     0.049 C 
ATOM      3  S   UNL     1      -1.032   0.750   0.000  1.00  0.00    -0.066 SA
ATOM      4  S   UNL     1      -1.032  -0.750   0.000  1.00  0.00    -0.085 SA
ATOM      5  C   UNL     1       0.394  -1.214   0.000  1.00  0.00     0.110 C 
ENDROOT
TORSDOF 0
