REMARK SMILES C=CC[C@@]12C=C(OC)[C@H](OC(C)=O)[C@@](OC)(C1O)[C@@H](c1ccc3c(c1)OCO3)[C@@H]2C
REMARK SMILES IDX 4 1 5 2 6 3 9 4 14 5 17 6 19 7 29 8 30 9 3 10 2 11 1 12
REMARK SMILES IDX 18 13 7 15 8 16 15 17 16 18 20 19 21 20 25 21 22 22 24 23
REMARK SMILES IDX 23 24 26 25 28 26 27 27 10 28 11 29 12 30 13 31
REMARK H PARENT 18 14
ROOT
ATOM      1  C   UNL     1       1.959   1.782   0.000  1.00  0.00     0.028 C 
ATOM      2  C   UNL     1       3.367   1.263   0.000  1.00  0.00     0.029 C 
ATOM      3  C   UNL     1       3.621  -0.215   0.000  1.00  0.00     0.136 C 
ATOM      4  C   UNL     1       2.467  -1.174   0.000  1.00  0.00     0.276 C 
ATOM      5  C   UNL     1       1.060  -0.655   0.000  1.00  0.00     0.145 C 
ATOM      6  C   UNL     1       0.806   0.823   0.000  1.00  0.00     0.162 C 
ATOM      7  C   UNL     1      -0.059   0.434   0.000  1.00  0.00     0.062 C 
ATOM      8  C   UNL     1       0.461   1.841   0.000  1.00  0.00     0.010 C 
ATOM      9  C   UNL     1      -0.373   3.088   0.000  1.00  0.00     0.009 C 
ENDROOT
BRANCH   1  10
ATOM     10  C   UNL     1       1.705   3.261   0.000  1.00  0.00     0.041 C 
BRANCH  10  11
ATOM     11  C   UNL     1       2.859   4.220   0.000  1.00  0.00    -0.034 C 
ATOM     12  C   UNL     1       2.605   5.698   0.000  1.00  0.00     0.004 C 
ENDBRANCH  10  11
ENDBRANCH   1  10
BRANCH   6  13
ATOM     13  O   UNL     1      -0.601   1.342   0.000  1.00  0.00    -0.389 OA
ATOM     14  H   UNL     1       0.000   0.000   0.000  1.00  0.00     0.211 HD
ENDBRANCH   6  13
BRANCH   3  15
ATOM     15  O   UNL     1       5.028  -0.735   0.000  1.00  0.00    -0.497 OA
ATOM     16  C   UNL     1       5.282  -2.213   0.000  1.00  0.00     0.278 C 
ENDBRANCH   3  15
BRANCH   5  17
ATOM     17  O   UNL     1      -0.093  -1.614   0.000  1.00  0.00    -0.370 OA
ATOM     18  C   UNL     1      -1.071  -1.507   0.000  1.00  0.00     0.196 C 
ENDBRANCH   5  17
BRANCH   7  19
ATOM     19  C   UNL     1      -1.502   0.027   0.000  1.00  0.00    -0.038 A 
ATOM     20  C   UNL     1      -1.872  -1.427   0.000  1.00  0.00     0.008 A 
ATOM     21  C   UNL     1      -2.577   1.074   0.000  1.00  0.00     0.054 A 
ATOM     22  C   UNL     1      -3.315  -1.834   0.000  1.00  0.00     0.051 A 
ATOM     23  C   UNL     1      -4.021   0.666   0.000  1.00  0.00     0.166 A 
ATOM     24  C   UNL     1      -4.390  -0.787   0.000  1.00  0.00     0.165 A 
ATOM     25  O   UNL     1      -5.289   1.467   0.000  1.00  0.00    -0.454 OA
ATOM     26  O   UNL     1      -5.887  -0.885   0.000  1.00  0.00    -0.454 OA
ATOM     27  C   UNL     1      -6.442   0.508   0.000  1.00  0.00     0.468 C 
ENDBRANCH   7  19
BRANCH   4  28
ATOM     28  O   UNL     1       2.721  -2.653   0.000  1.00  0.00    -0.451 OA
BRANCH  28  29
ATOM     29  C   UNL     1       1.568  -3.612   0.000  1.00  0.00     0.303 C 
ATOM     30  C   UNL     1       1.822  -5.090   0.000  1.00  0.00     0.139 C 
ATOM     31  O   UNL     1       0.161  -3.093   0.000  1.00  0.00    -0.253 OA
ENDBRANCH  28  29
ENDBRANCH   4  28
TORSDOF 8
