REMARK SMILES COc1cc(OC)c2c(=O)cc(-c3ccc4c(c3)OCO4)oc2c1
REMARK SMILES IDX 3 1 4 2 5 3 8 4 9 5 10 6 11 7 12 8 22 9 23 10 24 11 2 12
REMARK SMILES IDX 1 13 6 14 7 15 13 16 14 17 18 18 15 19 17 20 16 21 19 22
REMARK SMILES IDX 21 23 20 24
REMARK H PARENT
ROOT
ATOM      1  C   UNL     1      -4.152  -1.580   0.000  1.00  0.00     0.126 A 
ATOM      2  C   UNL     1      -4.616  -0.154   0.000  1.00  0.00     0.093 A 
ATOM      3  C   UNL     1      -3.612   0.961   0.000  1.00  0.00     0.137 A 
ATOM      4  C   UNL     1      -2.145   0.650   0.000  1.00  0.00     0.107 A 
ATOM      5  C   UNL     1      -1.141   1.765   0.000  1.00  0.00     0.197 A 
ATOM      6  O   UNL     1      -1.605   3.191   0.000  1.00  0.00    -0.289 OA
ATOM      7  C   UNL     1       0.326   1.453   0.000  1.00  0.00     0.100 A 
ATOM      8  C   UNL     1       0.790   0.027   0.000  1.00  0.00     0.138 A 
ATOM      9  O   UNL     1      -0.214  -1.088   0.000  1.00  0.00    -0.456 OA
ATOM     10  C   UNL     1      -1.681  -0.777   0.000  1.00  0.00     0.146 A 
ATOM     11  C   UNL     1      -2.684  -1.892   0.000  1.00  0.00     0.094 A 
ENDROOT
BRANCH   1  12
ATOM     12  O   UNL     1      -5.155  -2.695   0.000  1.00  0.00    -0.496 OA
ATOM     13  C   UNL     1      -6.622  -2.384   0.000  1.00  0.00     0.278 C 
ENDBRANCH   1  12
BRANCH   3  14
ATOM     14  O   UNL     1      -4.076   2.388   0.000  1.00  0.00    -0.496 OA
ATOM     15  C   UNL     1      -5.543   2.699   0.000  1.00  0.00     0.278 C 
ENDBRANCH   3  14
BRANCH   8  16
ATOM     16  C   UNL     1       2.257  -0.285   0.000  1.00  0.00     0.021 A 
ATOM     17  C   UNL     1       2.721  -1.711   0.000  1.00  0.00     0.016 A 
ATOM     18  C   UNL     1       3.260   0.830   0.000  1.00  0.00     0.062 A 
ATOM     19  C   UNL     1       4.188  -2.023   0.000  1.00  0.00     0.051 A 
ATOM     20  C   UNL     1       4.728   0.519   0.000  1.00  0.00     0.166 A 
ATOM     21  C   UNL     1       5.191  -0.908   0.000  1.00  0.00     0.165 A 
ATOM     22  O   UNL     1       5.941   1.401   0.000  1.00  0.00    -0.454 OA
ATOM     23  O   UNL     1       6.691  -0.907   0.000  1.00  0.00    -0.454 OA
ATOM     24  C   UNL     1       7.155   0.519   0.000  1.00  0.00     0.468 C 
ENDBRANCH   8  16
TORSDOF 3
