REMARK SMILES C=C(CC[C@@H](C)[C@@H]1CC[C@@]2(C)C3CCC4C(C)(C)[C@@H](OC(=O)CCCCCCCCCCCCCCC)CC[C@@]45C[C@@]35CC[C@]12C)C(C)C
REMARK SMILES IDX 25 1 24 2 23 3 21 4 22 5 20 6 19 7 7 8 8 9 45 10 9 11 44 12
REMARK SMILES IDX 10 13 43 14 12 15 42 16 13 17 41 18 40 19 14 20 39 21 15 22
REMARK SMILES IDX 38 23 16 24 46 25 11 26 17 27 18 28 5 29 6 30 4 31 3 32 2 33
REMARK SMILES IDX 1 34 47 35 48 36 49 37 26 38 27 39 28 40 29 41 30 42 31 43
REMARK SMILES IDX 32 44 33 45 34 46 35 47 36 48 37 49
REMARK H PARENT
ROOT
ATOM      1  C   UNL     1       6.040   1.484   0.000  1.00  0.00     0.001 C 
ENDROOT
BRANCH   1   2
ATOM      2  C   UNL     1       4.601   1.062   0.000  1.00  0.00     0.012 C 
BRANCH   2   3
ATOM      3  C   UNL     1       3.516   2.098   0.000  1.00  0.00     0.123 C 
BRANCH   3   4
ATOM      4  C   UNL     1       2.076   1.677   0.000  1.00  0.00     0.306 C 
ATOM      5  O   UNL     1       1.722   0.219   0.000  1.00  0.00    -0.252 OA
BRANCH   4   6
ATOM      6  O   UNL     1       0.992   2.713   0.000  1.00  0.00    -0.462 OA
BRANCH   6   7
ATOM      7  C   UNL     1      -0.448   2.291   0.000  1.00  0.00     0.182 C 
ATOM      8  C   UNL     1      -9.141   0.071   0.000  1.00  0.00    -0.002 C 
ATOM      9  C   UNL     1      -9.711   1.458   0.000  1.00  0.00     0.005 C 
ATOM     10  C   UNL     1      -7.646   0.184   0.000  1.00  0.00    -0.024 C 
ATOM     11  C   UNL     1      -8.567   2.429   0.000  1.00  0.00     0.008 C 
ATOM     12  C   UNL     1      -6.561  -0.852   0.000  1.00  0.00     0.008 C 
ATOM     13  C   UNL     1      -7.291   1.641   0.000  1.00  0.00    -0.024 C 
ATOM     14  C   UNL     1      -5.121  -0.431   0.000  1.00  0.00     0.008 C 
ATOM     15  C   UNL     1      -5.851   2.063   0.000  1.00  0.00     0.002 C 
ATOM     16  C   UNL     1      -4.766   1.027   0.000  1.00  0.00    -0.020 C 
ATOM     17  C   UNL     1      -5.497   3.520   0.000  1.00  0.00     0.005 C 
ATOM     18  C   UNL     1      -3.682  -0.009   0.000  1.00  0.00     0.015 C 
ATOM     19  C   UNL     1      -3.327   1.448   0.000  1.00  0.00    -0.020 C 
ATOM     20  C   UNL     1      -4.057   3.942   0.000  1.00  0.00     0.005 C 
ATOM     21  C   UNL     1      -2.242   0.412   0.000  1.00  0.00     0.012 C 
ATOM     22  C   UNL     1      -2.972   2.906   0.000  1.00  0.00     0.005 C 
ATOM     23  C   UNL     1      -0.803   0.834   0.000  1.00  0.00     0.046 C 
ATOM     24  C   UNL     1      -1.533   3.327   0.000  1.00  0.00     0.005 C 
ATOM     25  C   UNL     1      -8.151  -1.229   0.000  1.00  0.00     0.012 C 
ATOM     26  C   UNL     1      -7.090   3.128   0.000  1.00  0.00     0.012 C 
ATOM     27  C   UNL     1      -0.324   4.215   0.000  1.00  0.00     0.015 C 
ATOM     28  C   UNL     1      -2.198   4.672   0.000  1.00  0.00     0.015 C 
BRANCH   8  29
ATOM     29  C   UNL     1      -9.929  -1.206   0.000  1.00  0.00    -0.010 C 
ATOM     30  C   UNL     1     -11.428  -1.162   0.000  1.00  0.00     0.008 C 
BRANCH  29  31
ATOM     31  C   UNL     1      -9.218  -2.526   0.000  1.00  0.00     0.008 C 
BRANCH  31  32
ATOM     32  C   UNL     1     -10.005  -3.803   0.000  1.00  0.00     0.031 C 
BRANCH  32  33
ATOM     33  C   UNL     1      -9.294  -5.123   0.000  1.00  0.00    -0.075 C 
ATOM     34  C   UNL     1     -10.082  -6.400   0.000  1.00  0.00     0.008 C 
BRANCH  33  35
ATOM     35  C   UNL     1      -7.794  -5.167   0.000  1.00  0.00     0.008 C 
ATOM     36  C   UNL     1      -7.083  -6.488   0.000  1.00  0.00     0.012 C 
ATOM     37  C   UNL     1      -7.007  -3.891   0.000  1.00  0.00     0.012 C 
ENDBRANCH  33  35
ENDBRANCH  32  33
ENDBRANCH  31  32
ENDBRANCH  29  31
ENDBRANCH   8  29
ENDBRANCH   6   7
ENDBRANCH   4   6
ENDBRANCH   3   4
ENDBRANCH   2   3
ENDBRANCH   1   2
BRANCH   1  38
ATOM     38  C   UNL     1       7.125   0.448   0.000  1.00  0.00     0.000 C 
BRANCH  38  39
ATOM     39  C   UNL     1       8.565   0.869   0.000  1.00  0.00     0.000 C 
BRANCH  39  40
ATOM     40  C   UNL     1       9.650  -0.167   0.000  1.00  0.00     0.000 C 
BRANCH  40  41
ATOM     41  C   UNL     1      11.089   0.255   0.000  1.00  0.00     0.000 C 
BRANCH  41  42
ATOM     42  C   UNL     1      12.174  -0.781   0.000  1.00  0.00     0.000 C 
BRANCH  42  43
ATOM     43  C   UNL     1      13.614  -0.360   0.000  1.00  0.00    -0.000 C 
BRANCH  43  44
ATOM     44  C   UNL     1      14.698  -1.396   0.000  1.00  0.00    -0.000 C 
BRANCH  44  45
ATOM     45  C   UNL     1      16.138  -0.974   0.000  1.00  0.00    -0.000 C 
BRANCH  45  46
ATOM     46  C   UNL     1      17.223  -2.010   0.000  1.00  0.00    -0.000 C 
BRANCH  46  47
ATOM     47  C   UNL     1      18.662  -1.589   0.000  1.00  0.00    -0.000 C 
BRANCH  47  48
ATOM     48  C   UNL     1      19.747  -2.625   0.000  1.00  0.00    -0.003 C 
ATOM     49  C   UNL     1      21.187  -2.203   0.000  1.00  0.00     0.004 C 
ENDBRANCH  47  48
ENDBRANCH  46  47
ENDBRANCH  45  46
ENDBRANCH  44  45
ENDBRANCH  43  44
ENDBRANCH  42  43
ENDBRANCH  41  42
ENDBRANCH  40  41
ENDBRANCH  39  40
ENDBRANCH  38  39
ENDBRANCH   1  38
TORSDOF 21
