REMARK SMILES COc1cccc2c3c(c(=O)n(COC(C)=O)c12)C=CC(C)(C)O3
REMARK SMILES IDX 13 1 12 2 3 3 4 4 18 5 5 6 7 7 6 8 8 9 10 10 9 11 24 12
REMARK SMILES IDX 19 13 21 14 20 15 11 16 22 17 23 18 2 19 1 20 14 21 15 22
REMARK SMILES IDX 16 23 17 24
REMARK H PARENT
ROOT
ATOM      1  C   UNL     1      -2.490  -0.477   0.000  1.00  0.00     0.363 C 
ENDROOT
BRANCH   1   2
ATOM      2  N   UNL     1      -1.006  -0.258   0.000  1.00  0.00    -0.269 N 
ATOM      3  C   UNL     1      -1.386   2.312   0.000  1.00  0.00     0.143 A 
ATOM      4  C   UNL     1      -0.834   3.707   0.000  1.00  0.00     0.049 A 
ATOM      5  C   UNL     1      -0.454   1.137   0.000  1.00  0.00     0.100 A 
ATOM      6  C   UNL     1       0.650   3.926   0.000  1.00  0.00     0.005 A 
ATOM      7  C   UNL     1       1.030   1.356   0.000  1.00  0.00     0.045 A 
ATOM      8  C   UNL     1       1.582   2.751   0.000  1.00  0.00     0.014 A 
ATOM      9  C   UNL     1       1.961   0.180   0.000  1.00  0.00     0.142 A 
ATOM     10  C   UNL     1      -0.074  -1.434   0.000  1.00  0.00     0.264 A 
ATOM     11  C   UNL     1       1.409  -1.214   0.000  1.00  0.00     0.083 A 
ATOM     12  O   UNL     1       3.445   0.400   0.000  1.00  0.00    -0.482 OA
ATOM     13  C   UNL     1       2.341  -2.390   0.000  1.00  0.00     0.017 C 
ATOM     14  C   UNL     1       4.377  -0.776   0.000  1.00  0.00     0.122 C 
ATOM     15  C   UNL     1       3.825  -2.171   0.000  1.00  0.00     0.021 C 
ATOM     16  O   UNL     1      -0.626  -2.828   0.000  1.00  0.00    -0.268 OA
ATOM     17  C   UNL     1       5.655  -1.562   0.000  1.00  0.00     0.061 C 
ATOM     18  C   UNL     1       5.373   0.346   0.000  1.00  0.00     0.061 C 
BRANCH   3  19
ATOM     19  O   UNL     1      -2.870   2.093   0.000  1.00  0.00    -0.495 OA
ATOM     20  C   UNL     1      -3.802   3.268   0.000  1.00  0.00     0.278 C 
ENDBRANCH   3  19
ENDBRANCH   1   2
BRANCH   1  21
ATOM     21  O   UNL     1      -3.042  -1.872   0.000  1.00  0.00    -0.444 OA
BRANCH  21  22
ATOM     22  C   UNL     1      -4.526  -2.091   0.000  1.00  0.00     0.304 C 
ATOM     23  C   UNL     1      -5.078  -3.486   0.000  1.00  0.00     0.139 C 
ATOM     24  O   UNL     1      -5.458  -0.916   0.000  1.00  0.00    -0.253 OA
ENDBRANCH  21  22
ENDBRANCH   1  21
TORSDOF 4
