REMARK SMILES CC1(C)O[C@H]2CC(=O)OC[C@]23C2CC[C@@]4(C)[C@H](c5ccoc5)OC(=O)[C@H]5O[C@]54[C@]2(C)C(=O)C[C@@H]13
REMARK SMILES IDX 1 1 2 2 3 3 4 4 5 5 6 6 7 7 8 8 9 9 10 10 11 11 12 12 13 13
REMARK SMILES IDX 14 14 15 15 16 16 17 17 23 18 24 19 25 20 26 21 27 22 28 23
REMARK SMILES IDX 29 24 30 25 31 26 32 27 33 28 34 29 18 30 22 31 19 32 21 33
REMARK SMILES IDX 20 34
REMARK H PARENT
ROOT
ATOM      1  C   UNL     1      -6.407   0.271   0.000  1.00  0.00     0.042 C 
ATOM      2  C   UNL     1      -4.931  -0.000   0.000  1.00  0.00     0.067 C 
ATOM      3  C   UNL     1      -5.355  -1.439   0.000  1.00  0.00     0.042 C 
ATOM      4  O   UNL     1      -4.816   1.496   0.000  1.00  0.00    -0.371 OA
ATOM      5  C   UNL     1      -3.358   1.848   0.000  1.00  0.00     0.140 C 
ATOM      6  C   UNL     1      -2.278   2.571   0.000  1.00  0.00     0.155 C 
ATOM      7  C   UNL     1      -1.478   2.594   0.000  1.00  0.00     0.308 C 
ATOM      8  O   UNL     1      -0.432   4.529   0.000  1.00  0.00    -0.252 OA
ATOM      9  O   UNL     1      -1.059   1.912   0.000  1.00  0.00    -0.465 OA
ATOM     10  C   UNL     1      -1.440   1.208   0.000  1.00  0.00     0.243 C 
ATOM     11  C   UNL     1      -2.572   0.571   0.000  1.00  0.00     0.041 C 
ATOM     12  C   UNL     1      -1.097   0.300   0.000  1.00  0.00     0.018 C 
ATOM     13  C   UNL     1      -0.125   1.442   0.000  1.00  0.00     0.006 C 
ATOM     14  C   UNL     1       1.351   1.171   0.000  1.00  0.00     0.014 C 
ATOM     15  C   UNL     1       1.854  -0.242   0.000  1.00  0.00     0.042 C 
ATOM     16  C   UNL     1       2.826   0.900   0.000  1.00  0.00     0.019 C 
ATOM     17  C   UNL     1       3.329  -0.513   0.000  1.00  0.00     0.219 C 
ATOM     18  O   UNL     1       3.832  -1.926   0.000  1.00  0.00    -0.455 OA
ATOM     19  C   UNL     1       2.860  -3.068   0.000  1.00  0.00     0.339 C 
ATOM     20  O   UNL     1       3.363  -4.481   0.000  1.00  0.00    -0.249 OA
ATOM     21  C   UNL     1       1.384  -2.797   0.000  1.00  0.00     0.262 C 
ATOM     22  O   UNL     1      -0.091  -2.527   0.000  1.00  0.00    -0.352 OA
ATOM     23  C   UNL     1       0.881  -1.384   0.000  1.00  0.00     0.128 C 
ATOM     24  C   UNL     1      -0.594  -1.113   0.000  1.00  0.00     0.063 C 
ATOM     25  C   UNL     1      -2.069  -0.843   0.000  1.00  0.00     0.023 C 
ATOM     26  C   UNL     1      -1.566  -2.256   0.000  1.00  0.00     0.142 C 
ATOM     27  O   UNL     1      -1.063  -3.669   0.000  1.00  0.00    -0.299 OA
ATOM     28  C   UNL     1      -3.042  -1.985   0.000  1.00  0.00     0.083 C 
ATOM     29  C   UNL     1      -3.545  -0.572   0.000  1.00  0.00     0.040 C 
ENDROOT
BRANCH  17  30
ATOM     30  C   UNL     1       4.301   0.629   0.000  1.00  0.00     0.031 A 
ATOM     31  C   UNL     1       3.949   2.087   0.000  1.00  0.00     0.202 A 
ATOM     32  C   UNL     1       5.797   0.514   0.000  1.00  0.00     0.049 A 
ATOM     33  O   UNL     1       5.226   2.873   0.000  1.00  0.00    -0.472 OA
ATOM     34  C   UNL     1       6.368   1.901   0.000  1.00  0.00     0.195 A 
ENDBRANCH  17  30
TORSDOF 1
