REMARK SMILES CNc1ccccc1C(=O)O[C@H]1CC[C@]2(C)[C@H]3CC[C@]45C[C@]4(CC[C@H]5[C@@H]4C[C@H]([C@H](O)C(C)(C)O)O[C@@H]4OC)[C@]3(C)[C@H](O)C[C@H]2C1(C)C
REMARK SMILES IDX 12 1 13 2 14 3 15 4 16 5 17 6 18 7 19 8 20 9 21 10 22 11
REMARK SMILES IDX 23 12 24 13 25 14 39 15 40 16 41 17 43 18 44 19 45 20 46 21
REMARK SMILES IDX 47 22 11 23 9 24 10 25 8 26 3 27 4 28 5 29 7 30 6 31 2 32
REMARK SMILES IDX 1 33 42 35 26 37 27 38 36 39 28 40 35 41 37 42 38 43 29 44
REMARK SMILES IDX 30 45 31 47 32 48 33 49 34 50
REMARK H PARENT 2 34 42 36 30 46 34 51
ROOT
ATOM      1  C   UNL     1      -4.566   0.098   0.000  1.00  0.00     0.182 C 
ATOM      2  C   UNL     1      -3.664   1.296   0.000  1.00  0.00     0.046 C 
ATOM      3  C   UNL     1      -2.175   1.114   0.000  1.00  0.00     0.011 C 
ATOM      4  C   UNL     1      -1.588  -0.266   0.000  1.00  0.00    -0.025 C 
ATOM      5  C   UNL     1      -0.686   0.932   0.000  1.00  0.00     0.012 C 
ATOM      6  C   UNL     1      -0.099  -0.448   0.000  1.00  0.00     0.004 C 
ATOM      7  C   UNL     1       0.803   0.751   0.000  1.00  0.00     0.005 C 
ATOM      8  C   UNL     1       2.292   0.569   0.000  1.00  0.00     0.008 C 
ATOM      9  C   UNL     1       2.879  -0.812   0.000  1.00  0.00    -0.020 C 
ATOM     10  C   UNL     1       3.466  -2.192   0.000  1.00  0.00     0.016 C 
ATOM     11  C   UNL     1       1.977  -2.010   0.000  1.00  0.00    -0.015 C 
ATOM     12  C   UNL     1       2.838  -3.238   0.000  1.00  0.00     0.008 C 
ATOM     13  C   UNL     1       4.272  -2.799   0.000  1.00  0.00     0.005 C 
ATOM     14  C   UNL     1       4.297  -1.299   0.000  1.00  0.00     0.004 C 
ATOM     15  C   UNL     1       0.488  -1.828   0.000  1.00  0.00     0.003 C 
ATOM     16  C   UNL     1       1.075  -3.209   0.000  1.00  0.00     0.015 C 
ATOM     17  C   UNL     1      -0.414  -3.027   0.000  1.00  0.00     0.121 C 
ATOM     18  C   UNL     1      -1.903  -2.845   0.000  1.00  0.00     0.037 C 
ATOM     19  C   UNL     1      -2.490  -1.465   0.000  1.00  0.00     0.007 C 
ATOM     20  C   UNL     1      -3.979  -1.283   0.000  1.00  0.00     0.005 C 
ATOM     21  C   UNL     1      -5.440  -1.621   0.000  1.00  0.00     0.015 C 
ATOM     22  C   UNL     1      -3.899  -2.781   0.000  1.00  0.00     0.015 C 
ENDROOT
BRANCH   1  23
ATOM     23  O   UNL     1      -6.055   0.279   0.000  1.00  0.00    -0.458 OA
BRANCH  23  24
ATOM     24  C   UNL     1      -6.642   1.660   0.000  1.00  0.00     0.340 C 
ATOM     25  O   UNL     1      -5.740   2.858   0.000  1.00  0.00    -0.246 OA
BRANCH  24  26
ATOM     26  C   UNL     1      -8.131   1.842   0.000  1.00  0.00     0.083 A 
ATOM     27  C   UNL     1      -9.033   0.643   0.000  1.00  0.00     0.048 A 
ATOM     28  C   UNL     1     -10.522   0.825   0.000  1.00  0.00     0.026 A 
ATOM     29  C   UNL     1     -11.109   2.205   0.000  1.00  0.00     0.002 A 
ATOM     30  C   UNL     1      -8.718   3.222   0.000  1.00  0.00     0.018 A 
ATOM     31  C   UNL     1     -10.207   3.404   0.000  1.00  0.00     0.001 A 
BRANCH  27  32
ATOM     32  N   UNL     1      -8.446  -0.737   0.000  1.00  0.00    -0.387 N 
ATOM     33  C   UNL     1      -9.348  -1.936   0.000  1.00  0.00     0.139 C 
ATOM     34  H   UNL     1       0.000   0.000   0.000  1.00  0.00     0.160 HD
ENDBRANCH  27  32
ENDBRANCH  24  26
ENDBRANCH  23  24
ENDBRANCH   1  23
BRANCH  17  35
ATOM     35  O   UNL     1       0.173  -4.407   0.000  1.00  0.00    -0.393 OA
ATOM     36  H   UNL     1       0.000   0.000   0.000  1.00  0.00     0.210 HD
ENDBRANCH  17  35
BRANCH  14  37
ATOM     37  C   UNL     1       5.526  -0.438   0.000  1.00  0.00     0.052 C 
ATOM     38  C   UNL     1       5.551   1.062   0.000  1.00  0.00     0.044 C 
ATOM     39  C   UNL     1       6.944  -0.925   0.000  1.00  0.00     0.253 C 
ATOM     40  C   UNL     1       6.985   1.501   0.000  1.00  0.00     0.153 C 
ATOM     41  O   UNL     1       7.846   0.273   0.000  1.00  0.00    -0.346 OA
BRANCH  39  42
ATOM     42  O   UNL     1       7.384  -2.360   0.000  1.00  0.00    -0.356 OA
ATOM     43  C   UNL     1       8.845  -2.696   0.000  1.00  0.00     0.198 C 
ENDBRANCH  39  42
BRANCH  40  44
ATOM     44  C   UNL     1       7.472   2.920   0.000  1.00  0.00     0.174 C 
BRANCH  44  45
ATOM     45  O   UNL     1       6.488   4.051   0.000  1.00  0.00    -0.387 OA
ATOM     46  H   UNL     1       0.000   0.000   0.000  1.00  0.00     0.211 HD
ENDBRANCH  44  45
BRANCH  44  47
ATOM     47  C   UNL     1       8.945   3.207   0.000  1.00  0.00     0.087 C 
ATOM     48  C   UNL     1       9.232   1.735   0.000  1.00  0.00     0.044 C 
ATOM     49  C   UNL     1       8.658   4.679   0.000  1.00  0.00     0.044 C 
BRANCH  47  50
ATOM     50  O   UNL     1      10.417   3.494   0.000  1.00  0.00    -0.388 OA
ATOM     51  H   UNL     1       0.000   0.000   0.000  1.00  0.00     0.211 HD
ENDBRANCH  47  50
ENDBRANCH  44  47
ENDBRANCH  40  44
ENDBRANCH  14  37
TORSDOF 11
