REMARK SMILES C=C1CC[C@@H]2[C@H]([C@H]3[C@H]1CC[C@]3(C)O)C2(C)C
REMARK SMILES IDX 7 1 8 2 9 3 10 4 11 5 12 6 2 7 1 8 3 9 6 11 5 12 14 13 15 14
REMARK SMILES IDX 16 15 4 16 13 18
REMARK H PARENT 13 19
REMARK Flexibility Score:    5.900
ROOT
ATOM      1  C   UNL     1      -0.373   0.505   0.000  1.00  0.00     0.032 C 
ATOM      2  C   UNL     1      -1.546  -0.429   0.000  1.00  0.00     0.021 C 
ATOM      3  C   UNL     1      -2.798   0.397   0.000  1.00  0.00     0.011 C 
ATOM      4  C   UNL     1      -2.398   1.843   0.000  1.00  0.00     0.036 C 
ATOM      5  C   UNL     1      -0.900   1.910   0.000  1.00  0.00     0.066 C 
ATOM      6  C   UNL     1      -1.123   3.393   0.000  1.00  0.00     0.042 C 
ENDROOT
BRANCH   2   7
ATOM      7  C   UNL     1      -1.547  -1.929   0.000  1.00  0.00    -0.074 C 
ATOM      8  C   UNL     1      -2.899  -2.580   0.000  1.00  0.00     0.008 C 
BRANCH   7   9
ATOM      9  C   UNL     1      -0.375  -2.865   0.000  1.00  0.00     0.031 CG0
ATOM     10  G   UNL     1       1.088  -2.532   0.000  1.00  0.00     0.000 G0
ENDBRANCH   7   9
ENDBRANCH   2   7
BRANCH   1  11
ATOM     11  C   UNL     1       1.089   0.171   0.000  1.00  0.00     0.005 C 
ATOM     12  C   UNL     1       1.739  -1.181   0.000  1.00  0.00    -0.001 C 
ATOM     13  C   UNL     1       2.585   0.058   0.000  1.00  0.00    -0.029 C 
ATOM     14  C   UNL     1       2.955   1.512   0.000  1.00  0.00     0.011 C 
ATOM     15  C   UNL     1       3.952  -0.559   0.000  1.00  0.00     0.011 C 
BRANCH  12  16
ATOM     16  C   UNL     1       1.088  -2.532   0.000  1.00  0.00     0.009 CG0
ATOM     17  G   UNL     1      -0.375  -2.865   0.000  1.00  0.00     0.000 G0
ENDBRANCH  12  16
ENDBRANCH   1  11
BRANCH   5  18
ATOM     18  O   UNL     1       0.552   2.287   0.000  1.00  0.00    -0.390 OA
ATOM     19  H   UNL     1       0.000   0.000   0.000  1.00  0.00     0.211 HD
ENDBRANCH   5  18
TORSDOF 1
