REMARK SMILES CC(C)=CCC[C@@H](C)[C@H]1CC[C@@]2(C)[C@@H]3CC[C@H]4C(C)(C)C(=O)CC[C@@]45C[C@@]35CC[C@]12C
REMARK SMILES IDX 5 1 4 2 2 3 1 4 3 5 6 6 7 7 8 8 9 9 10 10 30 11 11 12 29 13
REMARK SMILES IDX 12 14 28 15 14 16 27 17 15 18 26 19 25 20 16 21 24 22 17 23
REMARK SMILES IDX 23 24 18 25 21 26 31 27 13 28 19 29 20 30 22 31
REMARK H PARENT
ROOT
ATOM      1  C   UNL     1      -5.608  -0.444   0.000  1.00  0.00     0.027 C 
ENDROOT
BRANCH   1   2
ATOM      2  C   UNL     1      -5.924  -1.910   0.000  1.00  0.00    -0.028 C 
BRANCH   2   3
ATOM      3  C   UNL     1      -7.352  -2.369   0.000  1.00  0.00    -0.080 C 
ATOM      4  C   UNL     1      -7.668  -3.836   0.000  1.00  0.00     0.039 C 
ATOM      5  C   UNL     1      -8.464  -1.363   0.000  1.00  0.00     0.039 C 
ENDBRANCH   2   3
ENDBRANCH   1   2
BRANCH   1   6
ATOM      6  C   UNL     1      -4.180   0.015   0.000  1.00  0.00     0.008 C 
BRANCH   6   7
ATOM      7  C   UNL     1      -3.864   1.482   0.000  1.00  0.00    -0.010 C 
ATOM      8  C   UNL     1      -4.975   2.489   0.000  1.00  0.00     0.008 C 
BRANCH   7   9
ATOM      9  C   UNL     1      -2.436   1.941   0.000  1.00  0.00    -0.002 C 
ATOM     10  C   UNL     1      -1.968   3.366   0.000  1.00  0.00     0.005 C 
ATOM     11  C   UNL     1      -1.225   1.056   0.000  1.00  0.00    -0.024 C 
ATOM     12  C   UNL     1      -0.468   3.361   0.000  1.00  0.00     0.008 C 
ATOM     13  C   UNL     1      -1.072  -0.437   0.000  1.00  0.00     0.008 C 
ATOM     14  C   UNL     1      -0.009   1.934   0.000  1.00  0.00    -0.024 C 
ATOM     15  C   UNL     1       0.296  -1.051   0.000  1.00  0.00     0.008 C 
ATOM     16  C   UNL     1       1.360   1.319   0.000  1.00  0.00     0.002 C 
ATOM     17  C   UNL     1       1.512  -0.173   0.000  1.00  0.00    -0.020 C 
ATOM     18  C   UNL     1       2.576   2.197   0.000  1.00  0.00     0.005 C 
ATOM     19  C   UNL     1       1.665  -1.665   0.000  1.00  0.00     0.016 C 
ATOM     20  C   UNL     1       2.881  -0.787   0.000  1.00  0.00    -0.019 C 
ATOM     21  C   UNL     1       3.945   1.583   0.000  1.00  0.00     0.005 C 
ATOM     22  C   UNL     1       3.033  -2.279   0.000  1.00  0.00     0.016 C 
ATOM     23  C   UNL     1       4.097   0.091   0.000  1.00  0.00     0.009 C 
ATOM     24  C   UNL     1       4.402  -2.893   0.000  1.00  0.00     0.077 C 
ATOM     25  C   UNL     1       5.465  -0.523   0.000  1.00  0.00     0.027 C 
ATOM     26  C   UNL     1       5.618  -2.015   0.000  1.00  0.00     0.138 C 
ATOM     27  C   UNL     1      -2.526   0.309   0.000  1.00  0.00     0.012 C 
ATOM     28  C   UNL     1       1.109   2.934   0.000  1.00  0.00     0.012 C 
ATOM     29  C   UNL     1       6.961  -0.632   0.000  1.00  0.00     0.020 C 
ATOM     30  C   UNL     1       5.833   0.931   0.000  1.00  0.00     0.020 C 
ATOM     31  O   UNL     1       6.986  -2.630   0.000  1.00  0.00    -0.299 OA
ENDBRANCH   7   9
ENDBRANCH   6   7
ENDBRANCH   1   6
TORSDOF 5
