REMARK SMILES C[C@@H]1N[C@H](CCCCCCCCCCC(O)CO)CC[C@@H]1O
REMARK SMILES IDX 10 1 9 2 8 3 7 4 6 5 5 6 4 7 2 8 3 9 21 10 20 11 19 12 1 13
REMARK SMILES IDX 22 15 11 17 12 18 13 19 14 20 15 21 16 22 17 24 18 25
REMARK H PARENT 3 14 22 16 16 23 18 26
ROOT
ATOM      1  C   UNL     1      -2.466   0.276   0.000  1.00  0.00     0.000 C 
ENDROOT
BRANCH   1   2
ATOM      2  C   UNL     1      -1.234  -0.581   0.000  1.00  0.00     0.000 C 
BRANCH   2   3
ATOM      3  C   UNL     1       0.123   0.058   0.000  1.00  0.00     0.000 C 
BRANCH   3   4
ATOM      4  C   UNL     1       1.355  -0.798   0.000  1.00  0.00     0.000 C 
BRANCH   4   5
ATOM      5  C   UNL     1       2.712  -0.160   0.000  1.00  0.00     0.002 C 
BRANCH   5   6
ATOM      6  C   UNL     1       3.944  -1.016   0.000  1.00  0.00     0.019 C 
BRANCH   6   7
ATOM      7  C   UNL     1       5.301  -0.377   0.000  1.00  0.00     0.054 C 
ATOM      8  C   UNL     1       7.890  -0.595   0.000  1.00  0.00     0.079 C 
ATOM      9  N   UNL     1       6.533  -1.233   0.000  1.00  0.00    -0.309 NA
ATOM     10  C   UNL     1       8.016   0.900   0.000  1.00  0.00     0.131 C 
ATOM     11  C   UNL     1       6.784   1.756   0.000  1.00  0.00     0.035 C 
ATOM     12  C   UNL     1       5.427   1.117   0.000  1.00  0.00     0.021 C 
ATOM     13  C   UNL     1       9.122  -1.451   0.000  1.00  0.00     0.027 C 
ATOM     14  H   UNL     1       0.000   0.000   0.000  1.00  0.00     0.123 HD
BRANCH  10  15
ATOM     15  O   UNL     1       9.373   1.538   0.000  1.00  0.00    -0.392 OA
ATOM     16  H   UNL     1       0.000   0.000   0.000  1.00  0.00     0.211 HD
ENDBRANCH  10  15
ENDBRANCH   6   7
ENDBRANCH   5   6
ENDBRANCH   4   5
ENDBRANCH   3   4
ENDBRANCH   2   3
ENDBRANCH   1   2
BRANCH   1  17
ATOM     17  C   UNL     1      -3.823  -0.363   0.000  1.00  0.00     0.000 C 
BRANCH  17  18
ATOM     18  C   UNL     1      -5.054   0.493   0.000  1.00  0.00     0.000 C 
BRANCH  18  19
ATOM     19  C   UNL     1      -6.412  -0.145   0.000  1.00  0.00     0.003 C 
BRANCH  19  20
ATOM     20  C   UNL     1      -7.643   0.711   0.000  1.00  0.00     0.034 C 
BRANCH  20  21
ATOM     21  C   UNL     1      -9.001   0.072   0.000  1.00  0.00     0.140 C 
BRANCH  21  22
ATOM     22  O   UNL     1      -9.126  -1.422   0.000  1.00  0.00    -0.391 OA
ATOM     23  H   UNL     1       0.000   0.000   0.000  1.00  0.00     0.211 HD
ENDBRANCH  21  22
BRANCH  21  24
ATOM     24  C   UNL     1     -10.232   0.929   0.000  1.00  0.00     0.187 C 
BRANCH  24  25
ATOM     25  O   UNL     1     -11.590   0.290   0.000  1.00  0.00    -0.394 OA
ATOM     26  H   UNL     1       0.000   0.000   0.000  1.00  0.00     0.210 HD
ENDBRANCH  24  25
ENDBRANCH  21  24
ENDBRANCH  20  21
ENDBRANCH  19  20
ENDBRANCH  18  19
ENDBRANCH  17  18
ENDBRANCH   1  17
TORSDOF 15
