REMARK SMILES COc1ccc(-c2cc(=O)c3c4c(c(OC)c(OC)c3o2)C=CC(C)(C)O4)cc1OC
REMARK SMILES IDX 7 1 8 2 9 3 10 4 11 5 12 6 27 7 24 8 25 9 26 10 23 11 22 12
REMARK SMILES IDX 13 13 14 14 17 15 20 16 21 17 6 18 3 19 4 20 29 21 5 22
REMARK SMILES IDX 28 23 2 24 1 25 30 26 31 27 18 28 19 29 15 30 16 31
REMARK H PARENT
ROOT
ATOM      1  C   UNL     1      -1.520  -0.178   0.000  1.00  0.00     0.138 A 
ATOM      2  C   UNL     1      -0.927  -1.556   0.000  1.00  0.00     0.100 A 
ATOM      3  C   UNL     1       0.563  -1.732   0.000  1.00  0.00     0.197 A 
ATOM      4  O   UNL     1       1.156  -3.109   0.000  1.00  0.00    -0.289 OA
ATOM      5  C   UNL     1       1.460  -0.529   0.000  1.00  0.00     0.112 A 
ATOM      6  C   UNL     1       2.949  -0.705   0.000  1.00  0.00     0.146 A 
ATOM      7  O   UNL     1       3.542  -2.082   0.000  1.00  0.00    -0.482 OA
ATOM      8  C   UNL     1       5.032  -2.258   0.000  1.00  0.00     0.122 C 
ATOM      9  C   UNL     1       6.372  -2.932   0.000  1.00  0.00     0.061 C 
ATOM     10  C   UNL     1       4.600  -3.694   0.000  1.00  0.00     0.061 C 
ATOM     11  C   UNL     1       5.929  -1.055   0.000  1.00  0.00     0.021 C 
ATOM     12  C   UNL     1       5.336   0.323   0.000  1.00  0.00     0.016 C 
ATOM     13  C   UNL     1       3.846   0.498   0.000  1.00  0.00     0.063 A 
ATOM     14  C   UNL     1       3.253   1.876   0.000  1.00  0.00     0.175 A 
ATOM     15  C   UNL     1       1.763   2.051   0.000  1.00  0.00     0.205 A 
ATOM     16  C   UNL     1       0.867   0.849   0.000  1.00  0.00     0.188 A 
ATOM     17  O   UNL     1      -0.623   1.024   0.000  1.00  0.00    -0.452 OA
ENDROOT
BRANCH   1  18
ATOM     18  C   UNL     1      -3.010  -0.003   0.000  1.00  0.00     0.021 A 
ATOM     19  C   UNL     1      -5.989   0.348   0.000  1.00  0.00     0.160 A 
ATOM     20  C   UNL     1      -5.092   1.550   0.000  1.00  0.00     0.051 A 
ATOM     21  C   UNL     1      -5.396  -1.030   0.000  1.00  0.00     0.161 A 
ATOM     22  C   UNL     1      -3.603   1.375   0.000  1.00  0.00     0.016 A 
ATOM     23  C   UNL     1      -3.906  -1.205   0.000  1.00  0.00     0.062 A 
BRANCH  19  24
ATOM     24  O   UNL     1      -7.479   0.523   0.000  1.00  0.00    -0.493 OA
ATOM     25  C   UNL     1      -8.072   1.901   0.000  1.00  0.00     0.278 C 
ENDBRANCH  19  24
BRANCH  21  26
ATOM     26  O   UNL     1      -6.293  -2.232   0.000  1.00  0.00    -0.493 OA
ATOM     27  C   UNL     1      -5.700  -3.610   0.000  1.00  0.00     0.278 C 
ENDBRANCH  21  26
ENDBRANCH   1  18
BRANCH  15  28
ATOM     28  O   UNL     1       1.170   3.429   0.000  1.00  0.00    -0.490 OA
ATOM     29  C   UNL     1       2.067   4.631   0.000  1.00  0.00     0.278 C 
ENDBRANCH  15  28
BRANCH  14  30
ATOM     30  O   UNL     1       4.150   3.078   0.000  1.00  0.00    -0.492 OA
ATOM     31  C   UNL     1       3.557   4.456   0.000  1.00  0.00     0.278 C 
ENDBRANCH  14  30
TORSDOF 5
