REMARK SMILES CC(C)=CCCC(C)=CCN(CC=C(C)CCC=C(C)C)C(=N)N
REMARK SMILES IDX 11 1 22 2 24 3 10 6 9 7 7 8 8 9 6 10 5 11 4 12 2 13 1 14
REMARK SMILES IDX 3 15 12 16 13 17 14 18 15 19 16 20 17 21 18 22 19 23 20 24
REMARK SMILES IDX 21 25 23 26
REMARK H PARENT 24 4 24 5 23 27
ROOT
ATOM      1  N   UNL     1      -0.180  -0.329   0.000  1.00  0.00    -0.336 N 
ATOM      2  C   UNL     1      -0.902  -1.644   0.000  1.00  0.00     0.188 C 
ATOM      3  N   UNL     1      -0.124  -2.926   0.000  1.00  0.00    -0.370 N 
ATOM      4  H   UNL     1       0.000   0.000   0.000  1.00  0.00     0.159 HD
ATOM      5  H   UNL     1       0.000   0.000   0.000  1.00  0.00     0.159 HD
ENDROOT
BRANCH   1   6
ATOM      6  C   UNL     1      -0.958   0.954   0.000  1.00  0.00     0.147 C 
BRANCH   6   7
ATOM      7  C   UNL     1      -2.458   0.921   0.000  1.00  0.00    -0.007 C 
BRANCH   7   8
ATOM      8  C   UNL     1      -3.236   2.204   0.000  1.00  0.00    -0.075 C 
ATOM      9  C   UNL     1      -2.514   3.519   0.000  1.00  0.00     0.039 C 
BRANCH   8  10
ATOM     10  C   UNL     1      -4.736   2.172   0.000  1.00  0.00     0.034 C 
BRANCH  10  11
ATOM     11  C   UNL     1      -5.457   0.857   0.000  1.00  0.00     0.032 C 
BRANCH  11  12
ATOM     12  C   UNL     1      -6.957   0.824   0.000  1.00  0.00    -0.028 C 
BRANCH  12  13
ATOM     13  C   UNL     1      -7.679  -0.490   0.000  1.00  0.00    -0.080 C 
ATOM     14  C   UNL     1      -9.178  -0.523   0.000  1.00  0.00     0.039 C 
ATOM     15  C   UNL     1      -6.901  -1.773   0.000  1.00  0.00     0.039 C 
ENDBRANCH  12  13
ENDBRANCH  11  12
ENDBRANCH  10  11
ENDBRANCH   8  10
ENDBRANCH   7   8
ENDBRANCH   6   7
ENDBRANCH   1   6
BRANCH   1  16
ATOM     16  C   UNL     1       1.319  -0.296   0.000  1.00  0.00     0.147 C 
BRANCH  16  17
ATOM     17  C   UNL     1       2.097  -1.579   0.000  1.00  0.00    -0.007 C 
BRANCH  17  18
ATOM     18  C   UNL     1       3.597  -1.547   0.000  1.00  0.00    -0.075 C 
ATOM     19  C   UNL     1       4.375  -2.829   0.000  1.00  0.00     0.039 C 
BRANCH  18  20
ATOM     20  C   UNL     1       4.319  -0.232   0.000  1.00  0.00     0.034 C 
BRANCH  20  21
ATOM     21  C   UNL     1       5.818  -0.199   0.000  1.00  0.00     0.032 C 
BRANCH  21  22
ATOM     22  C   UNL     1       6.540   1.116   0.000  1.00  0.00    -0.028 C 
BRANCH  22  23
ATOM     23  C   UNL     1       8.040   1.148   0.000  1.00  0.00    -0.080 C 
ATOM     24  C   UNL     1       8.761   2.463   0.000  1.00  0.00     0.039 C 
ATOM     25  C   UNL     1       8.818  -0.135   0.000  1.00  0.00     0.039 C 
ENDBRANCH  22  23
ENDBRANCH  21  22
ENDBRANCH  20  21
ENDBRANCH  18  20
ENDBRANCH  17  18
ENDBRANCH  16  17
ENDBRANCH   1  16
BRANCH   2  26
ATOM     26  N   UNL     1      -2.402  -1.676   0.000  1.00  0.00    -0.269 NA
ATOM     27  H   UNL     1       0.000   0.000   0.000  1.00  0.00     0.191 HD
ENDBRANCH   2  26
TORSDOF 15
