REMARK SMILES C[C@@H]1OC(Oc2c(-c3ccc(O)c(O)c3)oc3cc(O)cc(O)c3c2=O)[C@H](O)[C@@H](O)[C@H]1O
REMARK SMILES IDX 6 1 7 2 16 3 17 4 18 5 19 6 21 7 22 8 24 9 25 10 26 11 5 12
REMARK SMILES IDX 4 13 2 14 3 15 31 16 29 17 27 18 1 19 32 20 30 22 28 24 8 26
REMARK SMILES IDX 9 27 15 28 10 29 13 30 11 31 14 32 12 34 23 36 20 38
REMARK H PARENT 32 21 30 23 28 25 14 33 12 35 23 37 20 39
ROOT
ATOM      1  C   UNL     1      -0.277  -0.096   0.000  1.00  0.00     0.214 A 
ATOM      2  C   UNL     1      -1.775  -0.173   0.000  1.00  0.00     0.180 A 
ATOM      3  O   UNL     1      -2.457  -1.509   0.000  1.00  0.00    -0.452 OA
ATOM      4  C   UNL     1      -1.641  -2.768   0.000  1.00  0.00     0.146 A 
ATOM      5  C   UNL     1      -2.322  -4.104   0.000  1.00  0.00     0.094 A 
ATOM      6  C   UNL     1      -1.506  -5.362   0.000  1.00  0.00     0.123 A 
ATOM      7  C   UNL     1      -0.008  -5.285   0.000  1.00  0.00     0.093 A 
ATOM      8  C   UNL     1       0.673  -3.949   0.000  1.00  0.00     0.134 A 
ATOM      9  C   UNL     1      -0.142  -2.690   0.000  1.00  0.00     0.111 A 
ATOM     10  C   UNL     1       0.539  -1.354   0.000  1.00  0.00     0.239 A 
ATOM     11  O   UNL     1       2.037  -1.277   0.000  1.00  0.00    -0.285 OA
ENDROOT
BRANCH   1  12
ATOM     12  O   UNL     1       0.405   1.240   0.000  1.00  0.00    -0.454 OA
BRANCH  12  13
ATOM     13  C   UNL     1       1.903   1.318   0.000  1.00  0.00     0.339 C 
ATOM     14  C   UNL     1       4.217   0.137   0.000  1.00  0.00     0.151 C 
ATOM     15  O   UNL     1       2.719   0.059   0.000  1.00  0.00    -0.335 OA
ATOM     16  C   UNL     1       4.899   1.473   0.000  1.00  0.00     0.174 C 
ATOM     17  C   UNL     1       4.083   2.731   0.000  1.00  0.00     0.180 C 
ATOM     18  C   UNL     1       2.585   2.654   0.000  1.00  0.00     0.214 C 
ATOM     19  C   UNL     1       5.033  -1.122   0.000  1.00  0.00     0.042 C 
BRANCH  16  20
ATOM     20  O   UNL     1       6.397   1.550   0.000  1.00  0.00    -0.388 OA
ATOM     21  H   UNL     1       0.000   0.000   0.000  1.00  0.00     0.211 HD
ENDBRANCH  16  20
BRANCH  17  22
ATOM     22  O   UNL     1       4.765   4.067   0.000  1.00  0.00    -0.387 OA
ATOM     23  H   UNL     1       0.000   0.000   0.000  1.00  0.00     0.211 HD
ENDBRANCH  17  22
BRANCH  18  24
ATOM     24  O   UNL     1       1.769   3.913   0.000  1.00  0.00    -0.384 OA
ATOM     25  H   UNL     1       0.000   0.000   0.000  1.00  0.00     0.211 HD
ENDBRANCH  18  24
ENDBRANCH  12  13
ENDBRANCH   1  12
BRANCH   2  26
ATOM     26  C   UNL     1      -2.591   1.085   0.000  1.00  0.00     0.025 A 
ATOM     27  C   UNL     1      -1.909   2.422   0.000  1.00  0.00     0.016 A 
ATOM     28  C   UNL     1      -4.089   1.008   0.000  1.00  0.00     0.062 A 
ATOM     29  C   UNL     1      -2.725   3.680   0.000  1.00  0.00     0.051 A 
ATOM     30  C   UNL     1      -4.905   2.267   0.000  1.00  0.00     0.158 A 
ATOM     31  C   UNL     1      -4.223   3.603   0.000  1.00  0.00     0.157 A 
BRANCH  30  32
ATOM     32  O   UNL     1      -6.403   2.189   0.000  1.00  0.00    -0.504 OA
ATOM     33  H   UNL     1       0.000   0.000   0.000  1.00  0.00     0.293 HD
ENDBRANCH  30  32
BRANCH  31  34
ATOM     34  O   UNL     1      -5.039   4.861   0.000  1.00  0.00    -0.504 OA
ATOM     35  H   UNL     1       0.000   0.000   0.000  1.00  0.00     0.293 HD
ENDBRANCH  31  34
ENDBRANCH   2  26
BRANCH   8  36
ATOM     36  O   UNL     1       2.171  -3.871   0.000  1.00  0.00    -0.507 OA
ATOM     37  H   UNL     1       0.000   0.000   0.000  1.00  0.00     0.293 HD
ENDBRANCH   8  36
BRANCH   6  38
ATOM     38  O   UNL     1      -2.188  -6.698   0.000  1.00  0.00    -0.508 OA
ATOM     39  H   UNL     1       0.000   0.000   0.000  1.00  0.00     0.293 HD
ENDBRANCH   6  38
TORSDOF 10
