REMARK SMILES CC(=O)OC[C@H]1O[C@@H](Oc2cc(OC(C)=O)cc3cc4c(c(OC(C)=O)c23)C(C)O[C@H](C)C4O)[C@H](OC(C)=O)[C@@H](OC(C)=O)[C@@H]1OC(C)=O
REMARK SMILES IDX 6 1 7 2 8 3 35 4 40 5 45 6 5 7 4 8 2 9 1 10 3 11 46 12 47 13
REMARK SMILES IDX 48 14 49 15 9 16 10 17 11 18 27 19 12 20 22 21 18 22 17 23
REMARK SMILES IDX 21 24 19 25 20 26 28 27 33 28 30 29 31 30 29 31 32 32 13 33
REMARK SMILES IDX 14 34 15 35 16 36 23 37 24 38 25 39 26 40 34 41 41 43 42 44
REMARK SMILES IDX 43 45 44 46 36 47 37 48 38 49 39 50
REMARK H PARENT 34 42
ROOT
ATOM      1  C   UNL     1      -3.421   1.649   0.000  1.00  0.00     0.205 C 
ATOM      2  O   UNL     1      -1.924   1.738   0.000  1.00  0.00    -0.329 OA
ATOM      3  C   UNL     1      -1.098   0.486   0.000  1.00  0.00     0.353 C 
ATOM      4  C   UNL     1      -1.769  -0.855   0.000  1.00  0.00     0.290 C 
ATOM      5  C   UNL     1      -3.266  -0.945   0.000  1.00  0.00     0.267 C 
ATOM      6  C   UNL     1      -4.092   0.307   0.000  1.00  0.00     0.254 C 
ENDROOT
BRANCH   1   7
ATOM      7  C   UNL     1      -4.248   2.901   0.000  1.00  0.00     0.269 C 
BRANCH   7   8
ATOM      8  O   UNL     1      -3.577   4.242   0.000  1.00  0.00    -0.463 OA
BRANCH   8   9
ATOM      9  C   UNL     1      -4.403   5.494   0.000  1.00  0.00     0.302 C 
ATOM     10  C   UNL     1      -3.732   6.835   0.000  1.00  0.00     0.139 C 
ATOM     11  O   UNL     1      -5.900   5.404   0.000  1.00  0.00    -0.253 OA
ENDBRANCH   8   9
ENDBRANCH   7   8
ENDBRANCH   1   7
BRANCH   6  12
ATOM     12  O   UNL     1      -5.590   0.217   0.000  1.00  0.00    -0.455 OA
BRANCH  12  13
ATOM     13  C   UNL     1      -6.416   1.469   0.000  1.00  0.00     0.303 C 
ATOM     14  C   UNL     1      -7.913   1.379   0.000  1.00  0.00     0.139 C 
ATOM     15  O   UNL     1      -5.745   2.811   0.000  1.00  0.00    -0.253 OA
ENDBRANCH  12  13
ENDBRANCH   6  12
BRANCH   3  16
ATOM     16  O   UNL     1       0.400   0.576   0.000  1.00  0.00    -0.460 OA
BRANCH  16  17
ATOM     17  C   UNL     1       1.226  -0.676   0.000  1.00  0.00     0.138 A 
ATOM     18  C   UNL     1       0.555  -2.017   0.000  1.00  0.00     0.094 A 
ATOM     19  C   UNL     1       2.723  -0.586   0.000  1.00  0.00     0.067 A 
ATOM     20  C   UNL     1       1.381  -3.269   0.000  1.00  0.00     0.135 A 
ATOM     21  C   UNL     1       3.394   0.755   0.000  1.00  0.00     0.148 A 
ATOM     22  C   UNL     1       3.550  -1.838   0.000  1.00  0.00    -0.007 A 
ATOM     23  C   UNL     1       2.879  -3.179   0.000  1.00  0.00     0.056 A 
ATOM     24  C   UNL     1       4.891   0.845   0.000  1.00  0.00     0.030 A 
ATOM     25  C   UNL     1       5.047  -1.748   0.000  1.00  0.00     0.016 A 
ATOM     26  C   UNL     1       5.718  -0.407   0.000  1.00  0.00    -0.007 A 
ATOM     27  C   UNL     1       5.562   2.187   0.000  1.00  0.00     0.150 C 
ATOM     28  C   UNL     1       7.215  -0.317   0.000  1.00  0.00     0.173 C 
ATOM     29  O   UNL     1       7.060   2.276   0.000  1.00  0.00    -0.368 OA
ATOM     30  C   UNL     1       7.886   1.025   0.000  1.00  0.00     0.149 C 
ATOM     31  C   UNL     1       5.076   3.166   0.000  1.00  0.00     0.044 C 
ATOM     32  C   UNL     1       9.383   1.114   0.000  1.00  0.00     0.042 C 
BRANCH  20  33
ATOM     33  O   UNL     1       0.710  -4.611   0.000  1.00  0.00    -0.427 OA
BRANCH  33  34
ATOM     34  C   UNL     1      -0.787  -4.700   0.000  1.00  0.00     0.308 C 
ATOM     35  C   UNL     1      -1.458  -6.042   0.000  1.00  0.00     0.139 C 
ATOM     36  O   UNL     1      -1.374  -4.161   0.000  1.00  0.00    -0.252 OA
ENDBRANCH  33  34
ENDBRANCH  20  33
BRANCH  21  37
ATOM     37  O   UNL     1       2.568   2.007   0.000  1.00  0.00    -0.426 OA
BRANCH  37  38
ATOM     38  C   UNL     1       3.239   3.349   0.000  1.00  0.00     0.308 C 
ATOM     39  C   UNL     1       2.413   4.601   0.000  1.00  0.00     0.139 C 
ATOM     40  O   UNL     1       4.314   3.547   0.000  1.00  0.00    -0.252 OA
ENDBRANCH  37  38
ENDBRANCH  21  37
BRANCH  28  41
ATOM     41  O   UNL     1       8.041  -1.569   0.000  1.00  0.00    -0.386 OA
ATOM     42  H   UNL     1       0.000   0.000   0.000  1.00  0.00     0.211 HD
ENDBRANCH  28  41
ENDBRANCH  16  17
ENDBRANCH   3  16
BRANCH   5  43
ATOM     43  O   UNL     1      -3.937  -2.286   0.000  1.00  0.00    -0.454 OA
BRANCH  43  44
ATOM     44  C   UNL     1      -5.434  -2.376   0.000  1.00  0.00     0.303 C 
ATOM     45  C   UNL     1      -6.105  -3.718   0.000  1.00  0.00     0.139 C 
ATOM     46  O   UNL     1      -6.261  -1.124   0.000  1.00  0.00    -0.253 OA
ENDBRANCH  43  44
ENDBRANCH   5  43
BRANCH   4  47
ATOM     47  O   UNL     1      -0.942  -2.107   0.000  1.00  0.00    -0.452 OA
BRANCH  47  48
ATOM     48  C   UNL     1      -1.613  -3.449   0.000  1.00  0.00     0.303 C 
ATOM     49  C   UNL     1      -1.115  -4.863   0.000  1.00  0.00     0.139 C 
ATOM     50  O   UNL     1      -3.111  -3.538   0.000  1.00  0.00    -0.253 OA
ENDBRANCH  47  48
ENDBRANCH   4  47
TORSDOF 16
