REMARK SMILES C=CC[C@@]12C=C(OC)C(=O)C=C1O[C@H](c1cc(OC)c3c(c1)OCO3)[C@@H]2C
REMARK SMILES IDX 4 1 5 2 6 3 9 4 10 5 11 6 12 7 13 8 14 9 26 10 27 11 3 12
REMARK SMILES IDX 2 13 1 14 7 15 8 16 15 17 16 18 22 19 17 20 21 21 20 22
REMARK SMILES IDX 23 23 25 24 24 25 18 26 19 27
REMARK H PARENT
ROOT
ATOM      1  C   UNL     1       2.005   0.160   0.000  1.00  0.00     0.060 C 
ATOM      2  C   UNL     1       3.390  -0.417   0.000  1.00  0.00     0.039 C 
ATOM      3  C   UNL     1       4.582   0.494   0.000  1.00  0.00     0.163 C 
ATOM      4  C   UNL     1       4.389   1.982   0.000  1.00  0.00     0.223 C 
ATOM      5  O   UNL     1       5.581   2.892   0.000  1.00  0.00    -0.286 OA
ATOM      6  C   UNL     1       3.005   2.558   0.000  1.00  0.00     0.098 C 
ATOM      7  C   UNL     1       1.813   1.648   0.000  1.00  0.00     0.112 C 
ATOM      8  O   UNL     1       0.338   1.924   0.000  1.00  0.00    -0.489 OA
ATOM      9  C   UNL     1      -0.380   0.608   0.000  1.00  0.00     0.207 C 
ATOM     10  C   UNL     1       0.650  -0.483   0.000  1.00  0.00     0.050 C 
ATOM     11  C   UNL     1       0.374  -1.957   0.000  1.00  0.00     0.013 C 
ENDROOT
BRANCH   1  12
ATOM     12  C   UNL     1       2.042  -1.339   0.000  1.00  0.00     0.046 C 
BRANCH  12  13
ATOM     13  C   UNL     1       3.358  -2.058   0.000  1.00  0.00    -0.033 C 
ATOM     14  C   UNL     1       3.394  -3.557   0.000  1.00  0.00     0.004 C 
ENDBRANCH  12  13
ENDBRANCH   1  12
BRANCH   3  15
ATOM     15  O   UNL     1       5.966  -0.083   0.000  1.00  0.00    -0.493 OA
ATOM     16  C   UNL     1       6.159  -1.571   0.000  1.00  0.00     0.278 C 
ENDBRANCH   3  15
BRANCH   9  17
ATOM     17  C   UNL     1      -1.868   0.415   0.000  1.00  0.00     0.000 A 
ATOM     18  C   UNL     1      -2.445  -0.970   0.000  1.00  0.00     0.058 A 
ATOM     19  C   UNL     1      -2.778   1.607   0.000  1.00  0.00     0.058 A 
ATOM     20  C   UNL     1      -3.932  -1.162   0.000  1.00  0.00     0.165 A 
ATOM     21  C   UNL     1      -4.266   1.414   0.000  1.00  0.00     0.170 A 
ATOM     22  C   UNL     1      -4.843   0.030   0.000  1.00  0.00     0.207 A 
ATOM     23  O   UNL     1      -5.404   2.391   0.000  1.00  0.00    -0.453 OA
ATOM     24  O   UNL     1      -6.338   0.150   0.000  1.00  0.00    -0.450 OA
ATOM     25  C   UNL     1      -6.685   1.610   0.000  1.00  0.00     0.468 C 
BRANCH  20  26
ATOM     26  O   UNL     1      -4.509  -2.547   0.000  1.00  0.00    -0.493 OA
ATOM     27  C   UNL     1      -3.599  -3.739   0.000  1.00  0.00     0.278 C 
ENDBRANCH  20  26
ENDBRANCH   9  17
TORSDOF 5
