REMARK SMILES c1ccc(CSSSSCc2ccccc2)cc1
REMARK SMILES IDX 7 1 6 2 5 3 4 4 1 5 2 6 18 7 3 8 17 9 8 10 9 11 10 12 11 13
REMARK SMILES IDX 12 14 16 15 13 16 15 17 14 18
REMARK H PARENT
ROOT
ATOM      1  S   UNL     1      -0.574   0.482   0.000  1.00  0.00    -0.013 SA
ENDROOT
BRANCH   1   2
ATOM      2  S   UNL     1      -1.984  -0.029   0.000  1.00  0.00    -0.077 SA
BRANCH   2   3
ATOM      3  C   UNL     1      -3.132   0.936   0.000  1.00  0.00     0.118 C 
BRANCH   3   4
ATOM      4  C   UNL     1      -4.542   0.424   0.000  1.00  0.00    -0.037 A 
ATOM      5  C   UNL     1      -7.362  -0.600   0.000  1.00  0.00     0.000 A 
ATOM      6  C   UNL     1      -7.101   0.877   0.000  1.00  0.00     0.000 A 
ATOM      7  C   UNL     1      -6.214  -1.565   0.000  1.00  0.00     0.000 A 
ATOM      8  C   UNL     1      -5.691   1.389   0.000  1.00  0.00     0.004 A 
ATOM      9  C   UNL     1      -4.804  -1.053   0.000  1.00  0.00     0.004 A 
ENDBRANCH   3   4
ENDBRANCH   2   3
ENDBRANCH   1   2
BRANCH   1  10
ATOM     10  S   UNL     1       0.574  -0.482   0.000  1.00  0.00    -0.013 SA
BRANCH  10  11
ATOM     11  S   UNL     1       1.984   0.029   0.000  1.00  0.00    -0.077 SA
BRANCH  11  12
ATOM     12  C   UNL     1       3.132  -0.936   0.000  1.00  0.00     0.118 C 
BRANCH  12  13
ATOM     13  C   UNL     1       4.542  -0.424   0.000  1.00  0.00    -0.037 A 
ATOM     14  C   UNL     1       5.691  -1.389   0.000  1.00  0.00     0.004 A 
ATOM     15  C   UNL     1       4.804   1.053   0.000  1.00  0.00     0.004 A 
ATOM     16  C   UNL     1       7.101  -0.877   0.000  1.00  0.00     0.000 A 
ATOM     17  C   UNL     1       6.214   1.565   0.000  1.00  0.00     0.000 A 
ATOM     18  C   UNL     1       7.362   0.600   0.000  1.00  0.00     0.000 A 
ENDBRANCH  12  13
ENDBRANCH  11  12
ENDBRANCH  10  11
ENDBRANCH   1  10
TORSDOF 7
