REMARK SMILES Oc1ccc2c(c1)O[C@@H]1c3cc(O)c(O)cc3CO[C@H]1[C@@H]2O
REMARK SMILES IDX 2 1 3 2 4 3 5 4 6 5 7 6 8 7 9 8 10 9 11 10 12 11 14 12 16 13
REMARK SMILES IDX 17 14 18 15 19 16 20 17 21 18 1 19 22 21 13 23 15 25
REMARK H PARENT 1 20 22 22 13 24 15 26
ROOT
ATOM      1  C   UNL     1      -4.616  -1.650   0.000  1.00  0.00     0.119 A 
ATOM      2  C   UNL     1      -5.150  -0.249   0.000  1.00  0.00     0.047 A 
ATOM      3  C   UNL     1      -4.204   0.915   0.000  1.00  0.00     0.014 A 
ATOM      4  C   UNL     1      -2.723   0.677   0.000  1.00  0.00     0.026 A 
ATOM      5  C   UNL     1      -2.188  -0.725   0.000  1.00  0.00     0.129 A 
ATOM      6  C   UNL     1      -3.135  -1.888   0.000  1.00  0.00     0.093 A 
ATOM      7  O   UNL     1      -0.707  -0.963   0.000  1.00  0.00    -0.482 OA
ATOM      8  C   UNL     1       0.239   0.201   0.000  1.00  0.00     0.236 C 
ATOM      9  C   UNL     1       1.720  -0.037   0.000  1.00  0.00     0.005 A 
ATOM     10  C   UNL     1       2.255  -1.439   0.000  1.00  0.00     0.058 A 
ATOM     11  C   UNL     1       3.736  -1.677   0.000  1.00  0.00     0.157 A 
ATOM     12  C   UNL     1       4.682  -0.513   0.000  1.00  0.00     0.157 A 
ATOM     13  C   UNL     1       4.148   0.888   0.000  1.00  0.00     0.056 A 
ATOM     14  C   UNL     1       2.667   1.126   0.000  1.00  0.00    -0.011 A 
ATOM     15  C   UNL     1       2.133   2.528   0.000  1.00  0.00     0.197 C 
ATOM     16  O   UNL     1       0.652   2.766   0.000  1.00  0.00    -0.366 OA
ATOM     17  C   UNL     1      -0.295   1.602   0.000  1.00  0.00     0.197 C 
ATOM     18  C   UNL     1      -1.776   1.840   0.000  1.00  0.00     0.181 C 
ENDROOT
BRANCH   1  19
ATOM     19  O   UNL     1      -5.562  -2.814   0.000  1.00  0.00    -0.508 OA
ATOM     20  H   UNL     1       0.000   0.000   0.000  1.00  0.00     0.293 HD
ENDBRANCH   1  19
BRANCH  18  21
ATOM     21  O   UNL     1      -2.310   3.242   0.000  1.00  0.00    -0.385 OA
ATOM     22  H   UNL     1       0.000   0.000   0.000  1.00  0.00     0.211 HD
ENDBRANCH  18  21
BRANCH  11  23
ATOM     23  O   UNL     1       4.270  -3.078   0.000  1.00  0.00    -0.504 OA
ATOM     24  H   UNL     1       0.000   0.000   0.000  1.00  0.00     0.293 HD
ENDBRANCH  11  23
BRANCH  12  25
ATOM     25  O   UNL     1       6.163  -0.751   0.000  1.00  0.00    -0.504 OA
ATOM     26  H   UNL     1       0.000   0.000   0.000  1.00  0.00     0.293 HD
ENDBRANCH  12  25
TORSDOF 4
