REMARK SMILES C=C(CCC=C(C)C)[C@H]1CC=C(C)CC1
REMARK SMILES IDX 3 1 2 2 1 3 9 4 10 5 15 6 11 7 14 8 12 9 13 10 4 11 5 12
REMARK SMILES IDX 6 13 7 14 8 15
REMARK H PARENT
ROOT
ATOM      1  C   UNL     1      -1.012   0.236   0.000  1.00  0.00     0.035 C 
ENDROOT
BRANCH   1   2
ATOM      2  C   UNL     1       0.083  -0.789   0.000  1.00  0.00    -0.074 C 
ATOM      3  C   UNL     1      -0.258  -2.250   0.000  1.00  0.00     0.008 C 
BRANCH   2   4
ATOM      4  C   UNL     1       1.518  -0.354   0.000  1.00  0.00     0.018 C 
ATOM      5  C   UNL     1       1.859   1.107   0.000  1.00  0.00     0.035 C 
ATOM      6  C   UNL     1       2.613  -1.379   0.000  1.00  0.00     0.013 C 
ATOM      7  C   UNL     1       3.294   1.543   0.000  1.00  0.00    -0.027 C 
ATOM      8  C   UNL     1       4.048  -0.944   0.000  1.00  0.00     0.031 C 
ATOM      9  C   UNL     1       4.389   0.517   0.000  1.00  0.00    -0.077 C 
ATOM     10  C   UNL     1       5.824   0.953   0.000  1.00  0.00     0.039 C 
ENDBRANCH   2   4
ENDBRANCH   1   2
BRANCH   1  11
ATOM     11  C   UNL     1      -2.447  -0.200   0.000  1.00  0.00     0.032 C 
BRANCH  11  12
ATOM     12  C   UNL     1      -3.542   0.826   0.000  1.00  0.00    -0.028 C 
BRANCH  12  13
ATOM     13  C   UNL     1      -4.978   0.390   0.000  1.00  0.00    -0.080 C 
ATOM     14  C   UNL     1      -6.073   1.415   0.000  1.00  0.00     0.039 C 
ATOM     15  C   UNL     1      -5.318  -1.071   0.000  1.00  0.00     0.039 C 
ENDBRANCH  12  13
ENDBRANCH  11  12
ENDBRANCH   1  11
TORSDOF 5
