REMARK SMILES CC[C@H]1C[C@H]2CN3CCc4c([nH]c5ccccc45)[C@](C(=O)OC)(C2)[C@H]13
REMARK SMILES IDX 3 1 4 2 5 3 6 4 7 5 19 6 24 7 25 8 2 9 1 10 11 11 10 12
REMARK SMILES IDX 12 13 18 14 13 15 17 16 14 17 16 18 15 19 9 21 20 23 21 24
REMARK SMILES IDX 22 25 23 26 8 27
REMARK H PARENT 12 20
REMARK Flexibility Score:   11.900
ROOT
ATOM      1  C   UNL     1      -3.449   0.439   0.000  1.00  0.00     0.008 C 
ATOM      2  C   UNL     1      -3.799  -1.020   0.000  1.00  0.00     0.010 C 
ATOM      3  C   UNL     1      -2.712  -2.053   0.000  1.00  0.00     0.005 C 
ATOM      4  C   UNL     1      -3.208  -0.637   0.000  1.00  0.00     0.088 C 
ATOM      5  N   UNL     1      -1.881   2.359   0.000  1.00  0.00    -0.298 NA
ATOM      6  C   UNL     1      -0.922  -0.169   0.000  1.00  0.00     0.124 C 
ATOM      7  C   UNL     1      -1.273  -1.627   0.000  1.00  0.00     0.031 C 
ATOM      8  C   UNL     1      -2.010   0.864   0.000  1.00  0.00     0.083 C 
ENDROOT
BRANCH   1   9
ATOM      9  C   UNL     1      -4.536   1.471   0.000  1.00  0.00     0.002 C 
ATOM     10  C   UNL     1      -5.975   1.046   0.000  1.00  0.00     0.004 C 
ENDBRANCH   1   9
BRANCH   6  11
ATOM     11  C   UNL     1       0.563   0.038   0.000  1.00  0.00     0.038 A 
ATOM     12  C   UNL     1       1.328   1.328   0.000  1.00  0.00    -0.017 A 
ATOM     13  N   UNL     1       1.554  -1.088   0.000  1.00  0.00    -0.357 N 
ATOM     14  C   UNL     1       2.792   0.999   0.000  1.00  0.00     0.003 A 
ATOM     15  C   UNL     1       2.931  -0.494   0.000  1.00  0.00     0.046 A 
ATOM     16  C   UNL     1       4.015   1.867   0.000  1.00  0.00     0.010 A 
ATOM     17  C   UNL     1       4.295  -1.120   0.000  1.00  0.00     0.026 A 
ATOM     18  C   UNL     1       5.378   1.241   0.000  1.00  0.00     0.001 A 
ATOM     19  C   UNL     1       5.518  -0.252   0.000  1.00  0.00     0.002 A 
ATOM     20  H   UNL     1       0.000   0.000   0.000  1.00  0.00     0.166 HD
BRANCH  12  21
ATOM     21  C   UNL     1       0.796   2.731   0.000  1.00  0.00     0.053 CG0
ATOM     22  G   UNL     1      -0.632   3.189   0.000  1.00  0.00     0.000 G0
ENDBRANCH  12  21
ENDBRANCH   6  11
BRANCH   6  23
ATOM     23  C   UNL     1       0.085  -1.280   0.000  1.00  0.00     0.319 C 
ATOM     24  O   UNL     1       0.882  -1.305   0.000  1.00  0.00    -0.251 OA
BRANCH  23  25
ATOM     25  O   UNL     1      -0.374  -2.708   0.000  1.00  0.00    -0.468 OA
ATOM     26  C   UNL     1       0.634  -3.819   0.000  1.00  0.00     0.282 C 
ENDBRANCH  23  25
ENDBRANCH   6  23
BRANCH   5  27
ATOM     27  C   UNL     1      -0.632   3.189   0.000  1.00  0.00     0.089 CG0
ATOM     28  G   UNL     1       0.796   2.731   0.000  1.00  0.00     0.000 G0
ENDBRANCH   5  27
TORSDOF 3
