REMARK SMILES O=C1c2cccc(O)c2-c2c3c(cc4ccnc1c24)OCO3
REMARK SMILES IDX 1 1 2 2 3 3 4 4 5 5 6 6 7 7 9 8 10 9 19 10 18 11 17 12 16 13
REMARK SMILES IDX 15 14 14 15 13 16 12 17 11 18 22 19 21 20 20 21 8 22
REMARK H PARENT 8 23
ROOT
ATOM      1  O   UNL     1       3.272   2.482   0.000  1.00  0.00    -0.287 OA
ATOM      2  C   UNL     1       2.083   1.567   0.000  1.00  0.00     0.212 C 
ATOM      3  C   UNL     1       2.282   0.080   0.000  1.00  0.00     0.036 A 
ATOM      4  C   UNL     1       3.669  -0.491   0.000  1.00  0.00     0.013 A 
ATOM      5  C   UNL     1       3.868  -1.978   0.000  1.00  0.00     0.005 A 
ATOM      6  C   UNL     1       2.679  -2.894   0.000  1.00  0.00     0.047 A 
ATOM      7  C   UNL     1       1.292  -2.322   0.000  1.00  0.00     0.124 A 
ATOM      8  C   UNL     1       1.094  -0.836   0.000  1.00  0.00     0.039 A 
ATOM      9  C   UNL     1      -0.293  -0.264   0.000  1.00  0.00     0.042 A 
ATOM     10  C   UNL     1      -0.492   1.223   0.000  1.00  0.00     0.023 A 
ATOM     11  C   UNL     1       0.696   2.138   0.000  1.00  0.00     0.119 A 
ATOM     12  N   UNL     1       0.498   3.625   0.000  1.00  0.00    -0.252 NA
ATOM     13  C   UNL     1      -0.889   4.196   0.000  1.00  0.00     0.112 A 
ATOM     14  C   UNL     1      -2.077   3.281   0.000  1.00  0.00     0.029 A 
ATOM     15  C   UNL     1      -1.879   1.794   0.000  1.00  0.00    -0.010 A 
ATOM     16  C   UNL     1      -3.067   0.879   0.000  1.00  0.00     0.059 A 
ATOM     17  C   UNL     1      -2.868  -0.608   0.000  1.00  0.00     0.167 A 
ATOM     18  C   UNL     1      -1.481  -1.180   0.000  1.00  0.00     0.174 A 
ATOM     19  O   UNL     1      -1.596  -2.675   0.000  1.00  0.00    -0.453 OA
ATOM     20  C   UNL     1      -3.054  -3.028   0.000  1.00  0.00     0.468 C 
ATOM     21  O   UNL     1      -3.840  -1.751   0.000  1.00  0.00    -0.454 OA
ENDROOT
BRANCH   7  22
ATOM     22  O   UNL     1       0.104  -3.238   0.000  1.00  0.00    -0.507 OA
ATOM     23  H   UNL     1       0.000   0.000   0.000  1.00  0.00     0.293 HD
ENDBRANCH   7  22
TORSDOF 1
