REMARK SMILES O=C1C=CCC(C[C@H](O)C[C@@H](O)/C=C/c2ccccc2)O1
REMARK SMILES IDX 10 1 8 2 7 3 6 4 2 5 3 6 21 7 4 8 5 9 1 10 9 11 11 13 12 14
REMARK SMILES IDX 13 16 14 17 15 18 16 19 20 20 17 21 19 22 18 23
REMARK H PARENT 9 12 12 15
ROOT
ATOM      1  C   UNL     1      -0.141   0.799   0.000  1.00  0.00     0.068 C 
ENDROOT
BRANCH   1   2
ATOM      2  C   UNL     1      -1.571   0.345   0.000  1.00  0.00     0.121 C 
BRANCH   2   3
ATOM      3  C   UNL     1      -2.678   1.357   0.000  1.00  0.00     0.077 C 
BRANCH   3   4
ATOM      4  C   UNL     1      -4.108   0.903   0.000  1.00  0.00     0.183 C 
ATOM      5  C   UNL     1      -5.860  -1.015   0.000  1.00  0.00     0.330 C 
ATOM      6  C   UNL     1      -6.968  -0.003   0.000  1.00  0.00     0.089 C 
ATOM      7  O   UNL     1      -4.430  -0.561   0.000  1.00  0.00    -0.459 OA
ATOM      8  C   UNL     1      -6.646   1.462   0.000  1.00  0.00    -0.016 C 
ATOM      9  C   UNL     1      -5.216   1.915   0.000  1.00  0.00     0.073 C 
ATOM     10  O   UNL     1      -6.182  -2.480   0.000  1.00  0.00    -0.247 OA
ENDBRANCH   3   4
ENDBRANCH   2   3
BRANCH   2  11
ATOM     11  O   UNL     1      -1.893  -1.119   0.000  1.00  0.00    -0.393 OA
ATOM     12  H   UNL     1       0.000   0.000   0.000  1.00  0.00     0.210 HD
ENDBRANCH   2  11
ENDBRANCH   1   2
BRANCH   1  13
ATOM     13  C   UNL     1       0.967  -0.213   0.000  1.00  0.00     0.140 C 
BRANCH  13  14
ATOM     14  O   UNL     1       0.644  -1.678   0.000  1.00  0.00    -0.389 OA
ATOM     15  H   UNL     1       0.000   0.000   0.000  1.00  0.00     0.211 HD
ENDBRANCH  13  14
BRANCH  13  16
ATOM     16  C   UNL     1       2.397   0.241   0.000  1.00  0.00     0.005 C 
BRANCH  16  17
ATOM     17  C   UNL     1       3.504  -0.771   0.000  1.00  0.00     0.006 C 
BRANCH  17  18
ATOM     18  C   UNL     1       4.934  -0.317   0.000  1.00  0.00    -0.026 A 
ATOM     19  C   UNL     1       6.042  -1.329   0.000  1.00  0.00     0.008 A 
ATOM     20  C   UNL     1       5.256   1.148   0.000  1.00  0.00     0.008 A 
ATOM     21  C   UNL     1       7.471  -0.875   0.000  1.00  0.00     0.001 A 
ATOM     22  C   UNL     1       6.686   1.601   0.000  1.00  0.00     0.001 A 
ATOM     23  C   UNL     1       7.793   0.590   0.000  1.00  0.00     0.000 A 
ENDBRANCH  17  18
ENDBRANCH  16  17
ENDBRANCH  13  16
ENDBRANCH   1  13
TORSDOF 9
