REMARK SMILES COc1cc2c(cc1OC)-c1c(OC)c(OC)cc3c1[C@H](C2)N(C)CC3
REMARK SMILES IDX 3 1 4 2 5 3 6 4 7 5 8 6 11 7 12 8 15 9 18 10 19 11 20 12
REMARK SMILES IDX 21 13 22 14 23 15 24 16 25 17 26 18 2 19 1 20 9 21 10 22
REMARK SMILES IDX 13 23 14 24 16 25 17 26
REMARK H PARENT
ROOT
ATOM      1  C   UNL     1       3.653  -0.854   0.000  1.00  0.00     0.161 A 
ATOM      2  C   UNL     1       2.598  -1.921   0.000  1.00  0.00     0.054 A 
ATOM      3  C   UNL     1       1.147  -1.540   0.000  1.00  0.00    -0.034 A 
ATOM      4  C   UNL     1       0.751  -0.093   0.000  1.00  0.00    -0.007 A 
ATOM      5  C   UNL     1       1.806   0.973   0.000  1.00  0.00     0.059 A 
ATOM      6  C   UNL     1       3.257   0.593   0.000  1.00  0.00     0.161 A 
ATOM      7  C   UNL     1      -0.700   0.287   0.000  1.00  0.00     0.033 A 
ATOM      8  C   UNL     1      -1.096   1.734   0.000  1.00  0.00     0.168 A 
ATOM      9  C   UNL     1      -2.547   2.114   0.000  1.00  0.00     0.161 A 
ATOM     10  C   UNL     1      -3.602   1.048   0.000  1.00  0.00     0.054 A 
ATOM     11  C   UNL     1      -3.206  -0.399   0.000  1.00  0.00    -0.037 A 
ATOM     12  C   UNL     1      -1.755  -0.780   0.000  1.00  0.00    -0.015 A 
ATOM     13  C   UNL     1      -1.359  -2.226   0.000  1.00  0.00     0.092 C 
ATOM     14  C   UNL     1       0.092  -2.607   0.000  1.00  0.00     0.060 C 
ATOM     15  N   UNL     1      -2.414  -3.293   0.000  1.00  0.00    -0.299 NA
ATOM     16  C   UNL     1      -2.018  -4.739   0.000  1.00  0.00     0.106 C 
ATOM     17  C   UNL     1      -3.865  -2.912   0.000  1.00  0.00     0.089 C 
ATOM     18  C   UNL     1      -4.261  -1.466   0.000  1.00  0.00     0.051 C 
ENDROOT
BRANCH   1  19
ATOM     19  O   UNL     1       5.104  -1.234   0.000  1.00  0.00    -0.493 OA
ATOM     20  C   UNL     1       5.500  -2.681   0.000  1.00  0.00     0.278 C 
ENDBRANCH   1  19
BRANCH   6  21
ATOM     21  O   UNL     1       4.311   1.659   0.000  1.00  0.00    -0.493 OA
ATOM     22  C   UNL     1       3.915   3.106   0.000  1.00  0.00     0.278 C 
ENDBRANCH   6  21
BRANCH   8  23
ATOM     23  O   UNL     1      -0.041   2.800   0.000  1.00  0.00    -0.492 OA
ATOM     24  C   UNL     1      -0.438   4.247   0.000  1.00  0.00     0.278 C 
ENDBRANCH   8  23
BRANCH   9  25
ATOM     25  O   UNL     1      -2.943   3.561   0.000  1.00  0.00    -0.493 OA
ATOM     26  C   UNL     1      -1.889   4.627   0.000  1.00  0.00     0.278 C 
ENDBRANCH   9  25
TORSDOF 4
