REMARK SMILES CC(=O)CCCCCCCCCCCC[C@H]1CC[C@@H](OC(C)=O)[C@@H](C)N1
REMARK SMILES IDX 10 1 9 2 8 3 7 4 6 5 5 6 4 7 2 8 1 9 3 10 11 11 12 12 13 13
REMARK SMILES IDX 14 14 15 15 16 16 17 17 26 18 18 19 24 20 19 21 25 23 20 24
REMARK SMILES IDX 21 25 22 26 23 27
REMARK H PARENT 26 22
ROOT
ATOM      1  C   UNL     1      -2.979  -0.019   0.000  1.00  0.00     0.000 C 
ENDROOT
BRANCH   1   2
ATOM      2  C   UNL     1      -4.370  -0.581   0.000  1.00  0.00     0.000 C 
BRANCH   2   3
ATOM      3  C   UNL     1      -5.552   0.342   0.000  1.00  0.00     0.000 C 
BRANCH   3   4
ATOM      4  C   UNL     1      -6.943  -0.220   0.000  1.00  0.00     0.000 C 
BRANCH   4   5
ATOM      5  C   UNL     1      -8.125   0.703   0.000  1.00  0.00     0.000 C 
BRANCH   5   6
ATOM      6  C   UNL     1      -9.516   0.141   0.000  1.00  0.00     0.008 C 
BRANCH   6   7
ATOM      7  C   UNL     1     -10.698   1.064   0.000  1.00  0.00     0.075 C 
BRANCH   7   8
ATOM      8  C   UNL     1     -12.089   0.502   0.000  1.00  0.00     0.129 C 
ATOM      9  C   UNL     1     -13.271   1.425   0.000  1.00  0.00     0.087 C 
ATOM     10  O   UNL     1     -12.297  -0.984   0.000  1.00  0.00    -0.300 OA
ENDBRANCH   7   8
ENDBRANCH   6   7
ENDBRANCH   5   6
ENDBRANCH   4   5
ENDBRANCH   3   4
ENDBRANCH   2   3
ENDBRANCH   1   2
BRANCH   1  11
ATOM     11  C   UNL     1      -1.797  -0.942   0.000  1.00  0.00     0.000 C 
BRANCH  11  12
ATOM     12  C   UNL     1      -0.406  -0.380   0.000  1.00  0.00     0.000 C 
BRANCH  12  13
ATOM     13  C   UNL     1       0.776  -1.303   0.000  1.00  0.00     0.000 C 
BRANCH  13  14
ATOM     14  C   UNL     1       2.166  -0.741   0.000  1.00  0.00     0.002 C 
BRANCH  14  15
ATOM     15  C   UNL     1       3.349  -1.664   0.000  1.00  0.00     0.019 C 
BRANCH  15  16
ATOM     16  C   UNL     1       4.739  -1.102   0.000  1.00  0.00     0.054 C 
ATOM     17  C   UNL     1       4.948   0.384   0.000  1.00  0.00     0.023 C 
ATOM     18  N   UNL     1       5.922  -2.025   0.000  1.00  0.00    -0.308 NA
ATOM     19  C   UNL     1       6.338   0.946   0.000  1.00  0.00     0.048 C 
ATOM     20  C   UNL     1       7.312  -1.463   0.000  1.00  0.00     0.091 C 
ATOM     21  C   UNL     1       7.521   0.023   0.000  1.00  0.00     0.193 C 
ATOM     22  H   UNL     1       0.000   0.000   0.000  1.00  0.00     0.123 HD
ATOM     23  C   UNL     1       8.494  -2.386   0.000  1.00  0.00     0.028 C 
BRANCH  21  24
ATOM     24  O   UNL     1       8.911   0.585   0.000  1.00  0.00    -0.461 OA
BRANCH  24  25
ATOM     25  C   UNL     1       9.120   2.071   0.000  1.00  0.00     0.302 C 
ATOM     26  C   UNL     1      10.510   2.633   0.000  1.00  0.00     0.139 C 
ATOM     27  O   UNL     1       7.937   2.994   0.000  1.00  0.00    -0.253 OA
ENDBRANCH  24  25
ENDBRANCH  21  24
ENDBRANCH  15  16
ENDBRANCH  14  15
ENDBRANCH  13  14
ENDBRANCH  12  13
ENDBRANCH  11  12
ENDBRANCH   1  11
TORSDOF 15
