REMARK SMILES CC1(C)CC[C@]2(C)CC[C@]3(C)C4=C(CC[C@@]3(C)C2C1)[C@@]1(C)CC[C@H](O)C(C)(C)C1CC4
REMARK SMILES IDX 1 1 2 2 3 3 4 4 5 5 6 6 7 7 8 8 9 9 10 10 11 11 12 12 13 13
REMARK SMILES IDX 14 14 15 15 16 16 17 17 18 18 19 19 20 20 21 21 22 22 23 23
REMARK SMILES IDX 24 24 26 25 27 26 28 27 29 28 30 29 31 30 25 31
REMARK H PARENT 25 32
ROOT
ATOM      1  C   UNL     1      -5.351  -2.728   0.000  1.00  0.00     0.011 C 
ATOM      2  C   UNL     1      -5.479  -1.233   0.000  1.00  0.00    -0.035 C 
ATOM      3  C   UNL     1      -6.929  -1.618   0.000  1.00  0.00     0.011 C 
ATOM      4  C   UNL     1      -6.110   0.128   0.000  1.00  0.00     0.007 C 
ATOM      5  C   UNL     1      -5.247   1.354   0.000  1.00  0.00     0.007 C 
ATOM      6  C   UNL     1      -3.753   1.220   0.000  1.00  0.00    -0.029 C 
ATOM      7  C   UNL     1      -4.384   2.581   0.000  1.00  0.00     0.011 C 
ATOM      8  C   UNL     1      -2.890   2.447   0.000  1.00  0.00     0.008 C 
ATOM      9  C   UNL     1      -1.396   2.313   0.000  1.00  0.00     0.012 C 
ATOM     10  C   UNL     1      -0.765   0.952   0.000  1.00  0.00    -0.006 C 
ATOM     11  C   UNL     1       0.098   2.179   0.000  1.00  0.00     0.017 C 
ATOM     12  C   UNL     1       0.729   0.818   0.000  1.00  0.00    -0.064 C 
ATOM     13  C   UNL     1       1.360  -0.543   0.000  1.00  0.00    -0.064 C 
ATOM     14  C   UNL     1       0.497  -1.770   0.000  1.00  0.00     0.032 C 
ATOM     15  C   UNL     1      -0.997  -1.635   0.000  1.00  0.00     0.012 C 
ATOM     16  C   UNL     1      -1.628  -0.275   0.000  1.00  0.00    -0.020 C 
ATOM     17  C   UNL     1      -2.491  -1.502   0.000  1.00  0.00     0.012 C 
ATOM     18  C   UNL     1      -3.122  -0.141   0.000  1.00  0.00     0.002 C 
ATOM     19  C   UNL     1      -3.985  -1.367   0.000  1.00  0.00     0.011 C 
ATOM     20  C   UNL     1       2.854  -0.677   0.000  1.00  0.00    -0.008 C 
ATOM     21  C   UNL     1       1.991  -1.904   0.000  1.00  0.00     0.016 C 
ATOM     22  C   UNL     1       3.485  -2.038   0.000  1.00  0.00     0.014 C 
ATOM     23  C   UNL     1       4.979  -2.172   0.000  1.00  0.00     0.033 C 
ATOM     24  C   UNL     1       5.842  -0.945   0.000  1.00  0.00     0.120 C 
ATOM     25  C   UNL     1       5.211   0.416   0.000  1.00  0.00    -0.006 C 
ATOM     26  C   UNL     1       5.084   1.911   0.000  1.00  0.00     0.014 C 
ATOM     27  C   UNL     1       6.661   0.801   0.000  1.00  0.00     0.014 C 
ATOM     28  C   UNL     1       3.717   0.550   0.000  1.00  0.00     0.007 C 
ATOM     29  C   UNL     1       3.086   1.911   0.000  1.00  0.00     0.009 C 
ATOM     30  C   UNL     1       1.592   2.045   0.000  1.00  0.00     0.032 C 
ENDROOT
BRANCH  24  31
ATOM     31  O   UNL     1       7.336  -1.079   0.000  1.00  0.00    -0.393 OA
ATOM     32  H   UNL     1       0.000   0.000   0.000  1.00  0.00     0.210 HD
ENDBRANCH  24  31
TORSDOF 1
