REMARK SMILES C=C[C@]1(C)CCC2[C@]3(C)CCCC(C)(C)C3CC(=O)[C@]2(O)C1
REMARK SMILES IDX 3 1 4 2 5 3 6 4 7 5 8 6 9 7 10 8 11 9 12 10 13 11 14 12
REMARK SMILES IDX 15 13 16 14 17 15 18 16 19 17 20 18 22 19 2 20 1 21 21 22
REMARK H PARENT 21 23
ROOT
ATOM      1  C   UNL     1      -3.298  -0.035   0.000  1.00  0.00    -0.012 C 
ATOM      2  C   UNL     1      -4.250  -1.194   0.000  1.00  0.00     0.016 C 
ATOM      3  C   UNL     1      -2.799   1.379   0.000  1.00  0.00     0.011 C 
ATOM      4  C   UNL     1      -1.324   1.654   0.000  1.00  0.00     0.008 C 
ATOM      5  C   UNL     1      -0.349   0.515   0.000  1.00  0.00     0.035 C 
ATOM      6  C   UNL     1       1.126   0.790   0.000  1.00  0.00    -0.023 C 
ATOM      7  C   UNL     1       0.150   1.929   0.000  1.00  0.00     0.012 C 
ATOM      8  C   UNL     1       1.625   2.204   0.000  1.00  0.00     0.007 C 
ATOM      9  C   UNL     1       3.099   2.480   0.000  1.00  0.00     0.001 C 
ATOM     10  C   UNL     1       4.075   1.340   0.000  1.00  0.00     0.007 C 
ATOM     11  C   UNL     1       3.576  -0.074   0.000  1.00  0.00    -0.032 C 
ATOM     12  C   UNL     1       3.591  -1.574   0.000  1.00  0.00     0.011 C 
ATOM     13  C   UNL     1       5.056  -0.320   0.000  1.00  0.00     0.011 C 
ATOM     14  C   UNL     1       2.102  -0.350   0.000  1.00  0.00     0.008 C 
ATOM     15  C   UNL     1       1.603  -1.764   0.000  1.00  0.00     0.083 C 
ATOM     16  C   UNL     1       0.128  -2.039   0.000  1.00  0.00     0.164 C 
ATOM     17  O   UNL     1      -0.371  -3.454   0.000  1.00  0.00    -0.296 OA
ATOM     18  C   UNL     1      -0.848  -0.900   0.000  1.00  0.00     0.127 C 
ATOM     19  C   UNL     1      -2.322  -1.175   0.000  1.00  0.00     0.054 C 
ENDROOT
BRANCH   1  20
ATOM     20  C   UNL     1      -4.604   0.702   0.000  1.00  0.00    -0.028 C 
ATOM     21  C   UNL     1      -4.619   2.201   0.000  1.00  0.00     0.004 C 
ENDBRANCH   1  20
BRANCH  18  22
ATOM     22  O   UNL     1      -1.347  -2.314   0.000  1.00  0.00    -0.382 OA
ATOM     23  H   UNL     1       0.000   0.000   0.000  1.00  0.00     0.212 HD
ENDBRANCH  18  22
TORSDOF 2
