REMARK SMILES CC(=O)CCCCCCCCCCCC[C@H]1CC[C@@H](OC(=O)OC(C)(C)C)[C@@H](C)N1
REMARK SMILES IDX 11 1 10 2 9 3 8 4 7 5 6 6 5 7 4 8 2 9 1 10 3 11 12 12 13 13
REMARK SMILES IDX 14 14 15 15 16 16 17 17 30 18 18 19 28 20 19 21 29 23 20 24
REMARK SMILES IDX 21 25 22 26 23 27 24 28 25 29 26 30 27 31
REMARK H PARENT 30 22
ROOT
ATOM      1  C   UNL     1      -3.361  -1.238   0.000  1.00  0.00     0.000 C 
ENDROOT
BRANCH   1   2
ATOM      2  C   UNL     1      -4.454  -0.210   0.000  1.00  0.00     0.000 C 
BRANCH   2   3
ATOM      3  C   UNL     1      -5.890  -0.642   0.000  1.00  0.00     0.000 C 
BRANCH   3   4
ATOM      4  C   UNL     1      -6.982   0.385   0.000  1.00  0.00     0.000 C 
BRANCH   4   5
ATOM      5  C   UNL     1      -8.419  -0.047   0.000  1.00  0.00     0.000 C 
BRANCH   5   6
ATOM      6  C   UNL     1      -9.511   0.981   0.000  1.00  0.00     0.000 C 
BRANCH   6   7
ATOM      7  C   UNL     1     -10.948   0.548   0.000  1.00  0.00     0.008 C 
BRANCH   7   8
ATOM      8  C   UNL     1     -12.040   1.576   0.000  1.00  0.00     0.075 C 
BRANCH   8   9
ATOM      9  C   UNL     1     -13.477   1.144   0.000  1.00  0.00     0.129 C 
ATOM     10  C   UNL     1     -14.569   2.171   0.000  1.00  0.00     0.087 C 
ATOM     11  O   UNL     1     -13.820  -0.316   0.000  1.00  0.00    -0.300 OA
ENDBRANCH   8   9
ENDBRANCH   7   8
ENDBRANCH   6   7
ENDBRANCH   5   6
ENDBRANCH   4   5
ENDBRANCH   3   4
ENDBRANCH   2   3
ENDBRANCH   1   2
BRANCH   1  12
ATOM     12  C   UNL     1      -1.925  -0.805   0.000  1.00  0.00     0.000 C 
BRANCH  12  13
ATOM     13  C   UNL     1      -0.832  -1.833   0.000  1.00  0.00     0.000 C 
BRANCH  13  14
ATOM     14  C   UNL     1       0.604  -1.401   0.000  1.00  0.00     0.002 C 
BRANCH  14  15
ATOM     15  C   UNL     1       1.697  -2.429   0.000  1.00  0.00     0.019 C 
BRANCH  15  16
ATOM     16  C   UNL     1       3.133  -1.996   0.000  1.00  0.00     0.054 C 
ATOM     17  C   UNL     1       3.477  -0.536   0.000  1.00  0.00     0.023 C 
ATOM     18  N   UNL     1       4.226  -3.024   0.000  1.00  0.00    -0.308 NA
ATOM     19  C   UNL     1       4.913  -0.104   0.000  1.00  0.00     0.049 C 
ATOM     20  C   UNL     1       5.662  -2.591   0.000  1.00  0.00     0.092 C 
ATOM     21  C   UNL     1       6.006  -1.131   0.000  1.00  0.00     0.197 C 
ATOM     22  H   UNL     1       0.000   0.000   0.000  1.00  0.00     0.123 HD
ATOM     23  C   UNL     1       6.755  -3.619   0.000  1.00  0.00     0.028 C 
BRANCH  21  24
ATOM     24  O   UNL     1       7.442  -0.699   0.000  1.00  0.00    -0.429 OA
BRANCH  24  25
ATOM     25  C   UNL     1       7.786   0.761   0.000  1.00  0.00     0.509 C 
ATOM     26  O   UNL     1       6.694   1.789   0.000  1.00  0.00    -0.203 OA
BRANCH  25  27
ATOM     27  O   UNL     1       9.222   1.193   0.000  1.00  0.00    -0.429 OA
BRANCH  27  28
ATOM     28  C   UNL     1       9.566   2.654   0.000  1.00  0.00     0.107 C 
ATOM     29  C   UNL     1      11.026   2.310   0.000  1.00  0.00     0.056 C 
ATOM     30  C   UNL     1       8.106   2.997   0.000  1.00  0.00     0.056 C 
ATOM     31  C   UNL     1       9.910   4.114   0.000  1.00  0.00     0.056 C 
ENDBRANCH  27  28
ENDBRANCH  25  27
ENDBRANCH  24  25
ENDBRANCH  21  24
ENDBRANCH  15  16
ENDBRANCH  14  15
ENDBRANCH  13  14
ENDBRANCH  12  13
ENDBRANCH   1  12
TORSDOF 17
