REMARK SMILES COc1ccc(-c2coc3cc(O)cc(O)c3c2=O)c(OC)c1
REMARK SMILES IDX 7 1 8 2 9 3 10 4 11 5 12 6 14 7 15 8 17 9 18 10 19 11 6 12
REMARK SMILES IDX 3 13 4 14 23 15 5 16 20 17 2 18 1 19 21 20 22 21 16 22 13 24
REMARK H PARENT 16 23 13 25
ROOT
ATOM      1  C   UNL     1      -0.110  -0.381   0.000  1.00  0.00     0.069 A 
ATOM      2  C   UNL     1       0.368  -1.803   0.000  1.00  0.00     0.208 A 
ATOM      3  O   UNL     1       1.838  -2.100   0.000  1.00  0.00    -0.463 OA
ATOM      4  C   UNL     1       2.830  -0.975   0.000  1.00  0.00     0.145 A 
ATOM      5  C   UNL     1       4.301  -1.272   0.000  1.00  0.00     0.094 A 
ATOM      6  C   UNL     1       5.293  -0.148   0.000  1.00  0.00     0.123 A 
ATOM      7  C   UNL     1       4.815   1.274   0.000  1.00  0.00     0.093 A 
ATOM      8  C   UNL     1       3.345   1.571   0.000  1.00  0.00     0.134 A 
ATOM      9  C   UNL     1       2.353   0.447   0.000  1.00  0.00     0.107 A 
ATOM     10  C   UNL     1       0.882   0.744   0.000  1.00  0.00     0.204 A 
ATOM     11  O   UNL     1       0.404   2.166   0.000  1.00  0.00    -0.288 OA
ENDROOT
BRANCH   1  12
ATOM     12  C   UNL     1      -1.581  -0.084   0.000  1.00  0.00     0.031 A 
ATOM     13  C   UNL     1      -4.521   0.510   0.000  1.00  0.00     0.122 A 
ATOM     14  C   UNL     1      -3.529   1.635   0.000  1.00  0.00     0.047 A 
ATOM     15  C   UNL     1      -4.043  -0.912   0.000  1.00  0.00     0.093 A 
ATOM     16  C   UNL     1      -2.058   1.338   0.000  1.00  0.00     0.016 A 
ATOM     17  C   UNL     1      -2.573  -1.209   0.000  1.00  0.00     0.130 A 
BRANCH  13  18
ATOM     18  O   UNL     1      -5.991   0.807   0.000  1.00  0.00    -0.497 OA
ATOM     19  C   UNL     1      -6.469   2.229   0.000  1.00  0.00     0.278 C 
ENDBRANCH  13  18
BRANCH  17  20
ATOM     20  O   UNL     1      -2.095  -2.631   0.000  1.00  0.00    -0.496 OA
ATOM     21  C   UNL     1      -3.088  -3.755   0.000  1.00  0.00     0.278 C 
ENDBRANCH  17  20
ENDBRANCH   1  12
BRANCH   8  22
ATOM     22  O   UNL     1       2.867   2.993   0.000  1.00  0.00    -0.507 OA
ATOM     23  H   UNL     1       0.000   0.000   0.000  1.00  0.00     0.293 HD
ENDBRANCH   8  22
BRANCH   6  24
ATOM     24  O   UNL     1       6.763  -0.445   0.000  1.00  0.00    -0.508 OA
ATOM     25  H   UNL     1       0.000   0.000   0.000  1.00  0.00     0.293 HD
ENDBRANCH   6  24
TORSDOF 5
