REMARK SMILES CC=Cc1ccc(OC)c(OC)c1
REMARK SMILES IDX 4 1 5 2 6 3 7 4 10 5 13 6 3 7 2 8 1 9 11 10 12 11 8 12 9 13
REMARK H PARENT
ROOT
ATOM      1  C   UNL     1      -1.327  -0.105   0.000  1.00  0.00    -0.022 A 
ATOM      2  C   UNL     1      -1.118   1.380   0.000  1.00  0.00     0.012 A 
ATOM      3  C   UNL     1       0.273   1.942   0.000  1.00  0.00     0.051 A 
ATOM      4  C   UNL     1       1.455   1.019   0.000  1.00  0.00     0.160 A 
ATOM      5  C   UNL     1       1.246  -0.466   0.000  1.00  0.00     0.161 A 
ATOM      6  C   UNL     1      -0.144  -1.028   0.000  1.00  0.00     0.058 A 
ENDROOT
BRANCH   1   7
ATOM      7  C   UNL     1      -2.717  -0.667   0.000  1.00  0.00     0.003 C 
BRANCH   7   8
ATOM      8  C   UNL     1      -3.899   0.256   0.000  1.00  0.00    -0.030 C 
ATOM      9  C   UNL     1      -5.290  -0.306   0.000  1.00  0.00     0.035 C 
ENDBRANCH   7   8
ENDBRANCH   1   7
BRANCH   5  10
ATOM     10  O   UNL     1       2.428  -1.390   0.000  1.00  0.00    -0.493 OA
ATOM     11  C   UNL     1       2.220  -2.875   0.000  1.00  0.00     0.278 C 
ENDBRANCH   5  10
BRANCH   4  12
ATOM     12  O   UNL     1       2.846   1.581   0.000  1.00  0.00    -0.493 OA
ATOM     13  C   UNL     1       4.028   0.658   0.000  1.00  0.00     0.278 C 
ENDBRANCH   4  12
TORSDOF 4
