REMARK SMILES COc1cc(C[C@@H](COC(C)=O)[C@H](COC(C)=O)Cc2ccc(OC(C)=O)c(OC)c2)ccc1OC(C)=O
REMARK SMILES IDX 7 1 6 2 5 3 3 4 4 5 34 6 33 7 32 8 2 9 1 10 35 11 36 12
REMARK SMILES IDX 37 13 38 14 8 15 9 16 10 17 11 18 12 19 13 20 14 21 15 22
REMARK SMILES IDX 16 23 17 24 18 25 19 26 20 27 21 28 31 29 22 30 28 31 23 32
REMARK SMILES IDX 29 33 30 34 24 35 25 36 26 37 27 38
REMARK H PARENT
ROOT
ATOM      1  C   UNL     1       1.050   0.052   0.000  1.00  0.00     0.038 C 
ENDROOT
BRANCH   1   2
ATOM      2  C   UNL     1       1.982  -1.123   0.000  1.00  0.00     0.043 C 
BRANCH   2   3
ATOM      3  C   UNL     1       3.466  -0.903   0.000  1.00  0.00    -0.044 A 
ATOM      4  C   UNL     1       5.882  -1.859   0.000  1.00  0.00     0.161 A 
ATOM      5  C   UNL     1       4.398  -2.079   0.000  1.00  0.00     0.054 A 
ATOM      6  C   UNL     1       6.434  -0.464   0.000  1.00  0.00     0.172 A 
ATOM      7  C   UNL     1       5.501   0.711   0.000  1.00  0.00     0.051 A 
ATOM      8  C   UNL     1       4.017   0.492   0.000  1.00  0.00     0.008 A 
BRANCH   4   9
ATOM      9  O   UNL     1       6.814  -3.034   0.000  1.00  0.00    -0.493 OA
ATOM     10  C   UNL     1       6.263  -4.429   0.000  1.00  0.00     0.278 C 
ENDBRANCH   4   9
BRANCH   6  11
ATOM     11  O   UNL     1       7.917  -0.244   0.000  1.00  0.00    -0.423 OA
BRANCH  11  12
ATOM     12  C   UNL     1       8.469   1.151   0.000  1.00  0.00     0.308 C 
ATOM     13  C   UNL     1       9.953   1.371   0.000  1.00  0.00     0.139 C 
ATOM     14  O   UNL     1       7.537   2.326   0.000  1.00  0.00    -0.252 OA
ENDBRANCH  11  12
ENDBRANCH   6  11
ENDBRANCH   2   3
ENDBRANCH   1   2
BRANCH   1  15
ATOM     15  C   UNL     1       1.601   1.447   0.000  1.00  0.00     0.237 C 
BRANCH  15  16
ATOM     16  O   UNL     1       0.669   2.622   0.000  1.00  0.00    -0.466 OA
BRANCH  16  17
ATOM     17  C   UNL     1       1.220   4.017   0.000  1.00  0.00     0.302 C 
ATOM     18  C   UNL     1       0.288   5.192   0.000  1.00  0.00     0.139 C 
ATOM     19  O   UNL     1       2.704   4.237   0.000  1.00  0.00    -0.253 OA
ENDBRANCH  16  17
ENDBRANCH  15  16
ENDBRANCH   1  15
BRANCH   1  20
ATOM     20  C   UNL     1      -0.434  -0.168   0.000  1.00  0.00     0.038 C 
BRANCH  20  21
ATOM     21  C   UNL     1      -0.986  -1.563   0.000  1.00  0.00     0.237 C 
BRANCH  21  22
ATOM     22  O   UNL     1      -2.469  -1.783   0.000  1.00  0.00    -0.466 OA
BRANCH  22  23
ATOM     23  C   UNL     1      -3.021  -3.178   0.000  1.00  0.00     0.302 C 
ATOM     24  C   UNL     1      -4.505  -3.397   0.000  1.00  0.00     0.139 C 
ATOM     25  O   UNL     1      -2.088  -4.353   0.000  1.00  0.00    -0.253 OA
ENDBRANCH  22  23
ENDBRANCH  21  22
ENDBRANCH  20  21
BRANCH  20  26
ATOM     26  C   UNL     1      -1.366   1.007   0.000  1.00  0.00     0.043 C 
BRANCH  26  27
ATOM     27  C   UNL     1      -2.850   0.787   0.000  1.00  0.00    -0.044 A 
ATOM     28  C   UNL     1      -3.782   1.962   0.000  1.00  0.00     0.008 A 
ATOM     29  C   UNL     1      -3.402  -0.608   0.000  1.00  0.00     0.054 A 
ATOM     30  C   UNL     1      -5.266   1.742   0.000  1.00  0.00     0.051 A 
ATOM     31  C   UNL     1      -4.885  -0.828   0.000  1.00  0.00     0.161 A 
ATOM     32  C   UNL     1      -5.818   0.348   0.000  1.00  0.00     0.172 A 
BRANCH  31  33
ATOM     33  O   UNL     1      -5.437  -2.223   0.000  1.00  0.00    -0.493 OA
ATOM     34  C   UNL     1      -6.921  -2.442   0.000  1.00  0.00     0.278 C 
ENDBRANCH  31  33
BRANCH  32  35
ATOM     35  O   UNL     1      -7.301   0.128   0.000  1.00  0.00    -0.423 OA
BRANCH  35  36
ATOM     36  C   UNL     1      -8.234   1.303   0.000  1.00  0.00     0.308 C 
ATOM     37  C   UNL     1      -9.718   1.083   0.000  1.00  0.00     0.139 C 
ATOM     38  O   UNL     1      -7.682   2.698   0.000  1.00  0.00    -0.252 OA
ENDBRANCH  35  36
ENDBRANCH  32  35
ENDBRANCH  26  27
ENDBRANCH  20  26
ENDBRANCH   1  20
TORSDOF 17
