REMARK SMILES COc1ccc2c(c1)O[C@H]1c3cc(O)c(O)cc3CO[C@@H]1[C@H]2O
REMARK SMILES IDX 3 1 4 2 5 3 6 4 7 5 8 6 9 7 10 8 11 9 12 10 13 11 15 12
REMARK SMILES IDX 17 13 18 14 19 15 20 16 21 17 22 18 2 19 1 20 23 21 14 23
REMARK SMILES IDX 16 25
REMARK H PARENT 23 22 14 24 16 26
ROOT
ATOM      1  C   UNL     1      -4.411  -1.216   0.000  1.00  0.00     0.122 A 
ATOM      2  C   UNL     1      -4.841   0.221   0.000  1.00  0.00     0.047 A 
ATOM      3  C   UNL     1      -3.811   1.311   0.000  1.00  0.00     0.014 A 
ATOM      4  C   UNL     1      -2.352   0.965   0.000  1.00  0.00     0.026 A 
ATOM      5  C   UNL     1      -1.922  -0.472   0.000  1.00  0.00     0.129 A 
ATOM      6  C   UNL     1      -2.952  -1.563   0.000  1.00  0.00     0.093 A 
ATOM      7  O   UNL     1      -0.463  -0.819   0.000  1.00  0.00    -0.482 OA
ATOM      8  C   UNL     1       0.567   0.272   0.000  1.00  0.00     0.236 C 
ATOM      9  C   UNL     1       2.027  -0.075   0.000  1.00  0.00     0.005 A 
ATOM     10  C   UNL     1       2.456  -1.512   0.000  1.00  0.00     0.058 A 
ATOM     11  C   UNL     1       3.916  -1.859   0.000  1.00  0.00     0.157 A 
ATOM     12  C   UNL     1       4.946  -0.768   0.000  1.00  0.00     0.157 A 
ATOM     13  C   UNL     1       4.516   0.669   0.000  1.00  0.00     0.056 A 
ATOM     14  C   UNL     1       3.057   1.016   0.000  1.00  0.00    -0.011 A 
ATOM     15  C   UNL     1       2.627   2.453   0.000  1.00  0.00     0.197 C 
ATOM     16  O   UNL     1       1.168   2.799   0.000  1.00  0.00    -0.366 OA
ATOM     17  C   UNL     1       0.138   1.709   0.000  1.00  0.00     0.197 C 
ATOM     18  C   UNL     1      -1.322   2.055   0.000  1.00  0.00     0.181 C 
ENDROOT
BRANCH   1  19
ATOM     19  O   UNL     1      -5.441  -2.307   0.000  1.00  0.00    -0.497 OA
ATOM     20  C   UNL     1      -6.901  -1.960   0.000  1.00  0.00     0.278 C 
ENDBRANCH   1  19
BRANCH  18  21
ATOM     21  O   UNL     1      -1.751   3.493   0.000  1.00  0.00    -0.385 OA
ATOM     22  H   UNL     1       0.000   0.000   0.000  1.00  0.00     0.211 HD
ENDBRANCH  18  21
BRANCH  11  23
ATOM     23  O   UNL     1       4.345  -3.296   0.000  1.00  0.00    -0.504 OA
ATOM     24  H   UNL     1       0.000   0.000   0.000  1.00  0.00     0.293 HD
ENDBRANCH  11  23
BRANCH  12  25
ATOM     25  O   UNL     1       6.405  -1.115   0.000  1.00  0.00    -0.504 OA
ATOM     26  H   UNL     1       0.000   0.000   0.000  1.00  0.00     0.293 HD
ENDBRANCH  12  25
TORSDOF 4
