REMARK SMILES CNc1ccccc1-c1cc(OC)cc(=O)o1
REMARK SMILES IDX 3 1 4 2 5 3 6 4 7 5 8 6 2 7 1 8 9 10 10 11 17 12 11 13 15 14
REMARK SMILES IDX 14 15 16 16 12 17 13 18
REMARK H PARENT 2 9
ROOT
ATOM      1  C   UNL     1      -2.000  -0.644   0.000  1.00  0.00     0.045 A 
ATOM      2  C   UNL     1      -3.499  -0.611   0.000  1.00  0.00     0.026 A 
ATOM      3  C   UNL     1      -4.221   0.704   0.000  1.00  0.00     0.002 A 
ATOM      4  C   UNL     1      -3.443   1.986   0.000  1.00  0.00     0.001 A 
ATOM      5  C   UNL     1      -1.943   1.953   0.000  1.00  0.00     0.014 A 
ATOM      6  C   UNL     1      -1.222   0.638   0.000  1.00  0.00     0.041 A 
ENDROOT
BRANCH   1   7
ATOM      7  N   UNL     1      -1.278  -1.959   0.000  1.00  0.00    -0.388 N 
ATOM      8  C   UNL     1      -2.057  -3.242   0.000  1.00  0.00     0.139 C 
ATOM      9  H   UNL     1       0.000   0.000   0.000  1.00  0.00     0.160 HD
ENDBRANCH   1   7
BRANCH   6  10
ATOM     10  C   UNL     1       0.278   0.605   0.000  1.00  0.00     0.144 A 
ATOM     11  C   UNL     1       0.999  -0.710   0.000  1.00  0.00     0.094 A 
ATOM     12  O   UNL     1       1.056   1.888   0.000  1.00  0.00    -0.422 OA
ATOM     13  C   UNL     1       2.499  -0.743   0.000  1.00  0.00     0.129 A 
ATOM     14  C   UNL     1       2.556   1.855   0.000  1.00  0.00     0.339 A 
ATOM     15  C   UNL     1       3.277   0.540   0.000  1.00  0.00     0.140 A 
ATOM     16  O   UNL     1       3.334   3.137   0.000  1.00  0.00    -0.246 OA
BRANCH  13  17
ATOM     17  O   UNL     1       3.220  -2.058   0.000  1.00  0.00    -0.496 OA
ATOM     18  C   UNL     1       2.442  -3.340   0.000  1.00  0.00     0.278 C 
ENDBRANCH  13  17
ENDBRANCH   6  10
TORSDOF 3
