REMARK SMILES COc1c2c(cc3c(=O)c4ccccc4oc13)OCO2
REMARK SMILES IDX 3 1 4 2 20 3 19 4 18 5 5 6 6 7 7 8 17 9 16 10 15 11 14 12
REMARK SMILES IDX 13 13 12 14 11 15 10 16 8 17 9 18 2 19 1 20
REMARK H PARENT
ROOT
ATOM      1  C   UNL     1      -1.592  -1.111   0.000  1.00  0.00     0.208 A 
ATOM      2  C   UNL     1      -2.780  -0.195   0.000  1.00  0.00     0.211 A 
ATOM      3  O   UNL     1      -4.256  -0.465   0.000  1.00  0.00    -0.449 OA
ATOM      4  C   UNL     1      -4.968   0.855   0.000  1.00  0.00     0.468 C 
ATOM      5  O   UNL     1      -3.933   1.941   0.000  1.00  0.00    -0.453 OA
ATOM      6  C   UNL     1      -2.581   1.292   0.000  1.00  0.00     0.170 A 
ATOM      7  C   UNL     1      -1.194   1.863   0.000  1.00  0.00     0.067 A 
ATOM      8  C   UNL     1      -0.006   0.947   0.000  1.00  0.00     0.073 A 
ATOM      9  C   UNL     1      -0.205  -0.540   0.000  1.00  0.00     0.184 A 
ATOM     10  O   UNL     1       0.983  -1.456   0.000  1.00  0.00    -0.452 OA
ATOM     11  C   UNL     1       2.370  -0.885   0.000  1.00  0.00     0.138 A 
ATOM     12  C   UNL     1       3.558  -1.801   0.000  1.00  0.00     0.048 A 
ATOM     13  C   UNL     1       4.945  -1.230   0.000  1.00  0.00     0.004 A 
ATOM     14  C   UNL     1       5.144   0.256   0.000  1.00  0.00     0.001 A 
ATOM     15  C   UNL     1       3.956   1.172   0.000  1.00  0.00     0.016 A 
ATOM     16  C   UNL     1       2.569   0.601   0.000  1.00  0.00     0.065 A 
ATOM     17  C   UNL     1       1.381   1.517   0.000  1.00  0.00     0.200 A 
ATOM     18  O   UNL     1       1.581   3.004   0.000  1.00  0.00    -0.288 OA
ENDROOT
BRANCH   1  19
ATOM     19  O   UNL     1      -1.792  -2.597   0.000  1.00  0.00    -0.490 OA
ATOM     20  C   UNL     1      -3.179  -3.168   0.000  1.00  0.00     0.278 C 
ENDBRANCH   1  19
TORSDOF 1
