REMARK SMILES CCC(=O)N1c2c(cc(OC)c(OC)c2O)[C@@]23CCN4CCC[C@]5(CCO[C@@]452)CC[C@@H]13
REMARK SMILES IDX 5 1 6 2 7 3 8 4 9 5 12 6 15 7 17 8 18 9 19 10 20 11 21 12
REMARK SMILES IDX 22 13 23 14 24 15 25 16 26 17 27 18 28 19 29 20 30 21 31 22
REMARK SMILES IDX 3 23 4 24 2 25 1 26 16 27 13 29 14 30 10 31 11 32
REMARK H PARENT 16 28
ROOT
ATOM      1  N   UNL     1      -0.077   1.121   0.000  1.00  0.00    -0.304 N 
ATOM      2  C   UNL     1      -1.283   0.230   0.000  1.00  0.00     0.094 A 
ATOM      3  C   UNL     1      -0.808  -1.193   0.000  1.00  0.00    -0.004 A 
ATOM      4  C   UNL     1      -1.803  -2.316   0.000  1.00  0.00     0.057 A 
ATOM      5  C   UNL     1      -3.273  -2.015   0.000  1.00  0.00     0.165 A 
ATOM      6  C   UNL     1      -3.748  -0.593   0.000  1.00  0.00     0.205 A 
ATOM      7  C   UNL     1      -2.753   0.530   0.000  1.00  0.00     0.186 A 
ATOM      8  C   UNL     1       0.692  -1.181   0.000  1.00  0.00     0.063 C 
ATOM      9  C   UNL     1       0.070   0.185   0.000  1.00  0.00     0.034 C 
ATOM     10  C   UNL     1       1.177   1.197   0.000  1.00  0.00     0.088 C 
ATOM     11  N   UNL     1       2.482   0.458   0.000  1.00  0.00    -0.274 NA
ATOM     12  C   UNL     1       3.905   0.933   0.000  1.00  0.00     0.087 C 
ATOM     13  C   UNL     1       5.028  -0.062   0.000  1.00  0.00     0.016 C 
ATOM     14  C   UNL     1       4.728  -1.532   0.000  1.00  0.00     0.013 C 
ATOM     15  C   UNL     1       3.305  -2.007   0.000  1.00  0.00     0.016 C 
ATOM     16  C   UNL     1       3.294  -1.454   0.000  1.00  0.00     0.040 C 
ATOM     17  C   UNL     1       2.605  -1.665   0.000  1.00  0.00     0.163 C 
ATOM     18  O   UNL     1       2.732  -0.956   0.000  1.00  0.00    -0.359 OA
ATOM     19  C   UNL     1       2.182  -1.012   0.000  1.00  0.00     0.139 C 
ATOM     20  C   UNL     1       3.621  -0.533   0.000  1.00  0.00     0.014 C 
ATOM     21  C   UNL     1       2.608   0.573   0.000  1.00  0.00     0.027 C 
ATOM     22  C   UNL     1       1.144   0.250   0.000  1.00  0.00     0.106 C 
ENDROOT
BRANCH   1  23
ATOM     23  C   UNL     1      -0.089   2.622   0.000  1.00  0.00     0.227 C 
ATOM     24  O   UNL     1       1.204   3.382   0.000  1.00  0.00    -0.275 OA
BRANCH  23  25
ATOM     25  C   UNL     1      -1.394   3.361   0.000  1.00  0.00     0.097 C 
ATOM     26  C   UNL     1      -1.406   4.861   0.000  1.00  0.00     0.014 C 
ENDBRANCH  23  25
ENDBRANCH   1  23
BRANCH   7  27
ATOM     27  O   UNL     1      -3.228   1.953   0.000  1.00  0.00    -0.503 OA
ATOM     28  H   UNL     1       0.000   0.000   0.000  1.00  0.00     0.293 HD
ENDBRANCH   7  27
BRANCH   6  29
ATOM     29  O   UNL     1      -5.217  -0.292   0.000  1.00  0.00    -0.490 OA
ATOM     30  C   UNL     1      -5.692   1.130   0.000  1.00  0.00     0.278 C 
ENDBRANCH   6  29
BRANCH   5  31
ATOM     31  O   UNL     1      -4.267  -3.138   0.000  1.00  0.00    -0.493 OA
ATOM     32  C   UNL     1      -5.737  -2.838   0.000  1.00  0.00     0.278 C 
ENDBRANCH   5  31
TORSDOF 5
