REMARK SMILES C=C(CC[C@H](C)[C@@H]1CCC2C3CC=C4C[C@@H](O)CC[C@]4(C)C3C[C@@H](O)[C@@]21C)C(C)C
REMARK SMILES IDX 4 1 3 2 2 3 1 4 28 5 29 6 30 7 5 8 6 9 7 10 8 11 26 12 9 13
REMARK SMILES IDX 24 14 10 15 23 16 11 17 22 18 12 19 20 20 13 21 19 22 14 23
REMARK SMILES IDX 18 24 15 25 16 26 27 27 21 28 25 29 17 31
REMARK H PARENT 25 30 17 32
ROOT
ATOM      1  C   UNL     1      -3.735  -0.302   0.000  1.00  0.00     0.008 C 
ENDROOT
BRANCH   1   2
ATOM      2  C   UNL     1      -5.161   0.163   0.000  1.00  0.00     0.031 C 
BRANCH   2   3
ATOM      3  C   UNL     1      -5.471   1.631   0.000  1.00  0.00    -0.075 C 
ATOM      4  C   UNL     1      -6.897   2.096   0.000  1.00  0.00     0.008 C 
BRANCH   3   5
ATOM      5  C   UNL     1      -4.355   2.633   0.000  1.00  0.00     0.008 C 
ATOM      6  C   UNL     1      -4.665   4.101   0.000  1.00  0.00     0.012 C 
ATOM      7  C   UNL     1      -2.929   2.167   0.000  1.00  0.00     0.012 C 
ENDBRANCH   3   5
ENDBRANCH   2   3
ENDBRANCH   1   2
BRANCH   1   8
ATOM      8  C   UNL     1      -3.425  -1.770   0.000  1.00  0.00    -0.010 C 
ATOM      9  C   UNL     1      -4.541  -2.772   0.000  1.00  0.00     0.008 C 
BRANCH   8  10
ATOM     10  C   UNL     1      -1.999  -2.236   0.000  1.00  0.00     0.001 C 
ATOM     11  C   UNL     1      -1.538  -3.663   0.000  1.00  0.00     0.005 C 
ATOM     12  C   UNL     1      -0.784  -1.356   0.000  1.00  0.00    -0.000 C 
ATOM     13  C   UNL     1      -0.038  -3.665   0.000  1.00  0.00     0.005 C 
ATOM     14  C   UNL     1      -0.626   0.136   0.000  1.00  0.00     0.121 C 
ATOM     15  C   UNL     1       0.428  -2.239   0.000  1.00  0.00     0.001 C 
ATOM     16  C   UNL     1       0.746   0.744   0.000  1.00  0.00     0.037 C 
ATOM     17  C   UNL     1       1.799  -1.631   0.000  1.00  0.00     0.000 C 
ATOM     18  C   UNL     1       1.958  -0.139   0.000  1.00  0.00     0.005 C 
ATOM     19  C   UNL     1       3.011  -2.514   0.000  1.00  0.00     0.031 C 
ATOM     20  C   UNL     1       3.329   0.469   0.000  1.00  0.00    -0.008 C 
ATOM     21  C   UNL     1       4.382  -1.906   0.000  1.00  0.00    -0.027 C 
ATOM     22  C   UNL     1       3.488   1.960   0.000  1.00  0.00     0.014 C 
ATOM     23  C   UNL     1       4.541  -0.414   0.000  1.00  0.00    -0.065 C 
ATOM     24  C   UNL     1       4.859   2.569   0.000  1.00  0.00     0.033 C 
ATOM     25  C   UNL     1       5.912   0.194   0.000  1.00  0.00     0.063 C 
ATOM     26  C   UNL     1       6.071   1.685   0.000  1.00  0.00     0.118 C 
ATOM     27  C   UNL     1      -2.083  -0.604   0.000  1.00  0.00     0.015 C 
ATOM     28  C   UNL     1       2.117   1.352   0.000  1.00  0.00     0.016 C 
BRANCH  14  29
ATOM     29  O   UNL     1      -1.838   1.019   0.000  1.00  0.00    -0.393 OA
ATOM     30  H   UNL     1       0.000   0.000   0.000  1.00  0.00     0.210 HD
ENDBRANCH  14  29
BRANCH  26  31
ATOM     31  O   UNL     1       7.442   2.293   0.000  1.00  0.00    -0.393 OA
ATOM     32  H   UNL     1       0.000   0.000   0.000  1.00  0.00     0.210 HD
ENDBRANCH  26  31
ENDBRANCH   8  10
ENDBRANCH   1   8
TORSDOF 7
