REMARK SMILES CC1(C)CC[C@]2(C(=O)O)CC[C@]3(C)C(=CCC4[C@@]5(C)C[C@@H](O)[C@H](O)[C@@](C)(CO)C5[C@H](O)C[C@]43C)C2C1
REMARK SMILES IDX 1 1 2 2 3 3 4 4 5 5 6 6 10 7 11 8 12 9 13 10 14 11 15 12
REMARK SMILES IDX 16 13 17 14 18 15 19 16 20 17 21 18 23 19 25 20 26 21 29 22
REMARK SMILES IDX 30 23 32 24 33 25 34 26 35 27 36 28 7 29 8 30 9 31 31 33
REMARK SMILES IDX 27 35 28 36 22 38 24 40
REMARK H PARENT 9 32 31 34 28 37 22 39 24 41
ROOT
ATOM      1  C   UNL     1      -5.457  -3.275   0.000  1.00  0.00     0.011 C 
ATOM      2  C   UNL     1      -5.660  -1.789   0.000  1.00  0.00    -0.035 C 
ATOM      3  C   UNL     1      -7.089  -2.248   0.000  1.00  0.00     0.011 C 
ATOM      4  C   UNL     1      -6.360  -0.462   0.000  1.00  0.00     0.007 C 
ATOM      5  C   UNL     1      -5.561   0.807   0.000  1.00  0.00     0.020 C 
ATOM      6  C   UNL     1      -4.062   0.750   0.000  1.00  0.00     0.074 C 
ATOM      7  C   UNL     1      -3.263   2.019   0.000  1.00  0.00     0.020 C 
ATOM      8  C   UNL     1      -1.764   1.962   0.000  1.00  0.00     0.013 C 
ATOM      9  C   UNL     1      -1.065   0.635   0.000  1.00  0.00    -0.006 C 
ATOM     10  C   UNL     1      -0.365  -0.691   0.000  1.00  0.00     0.017 C 
ATOM     11  C   UNL     1      -1.864  -0.634   0.000  1.00  0.00    -0.063 C 
ATOM     12  C   UNL     1      -1.164  -1.961   0.000  1.00  0.00    -0.027 C 
ATOM     13  C   UNL     1       0.335  -2.018   0.000  1.00  0.00     0.032 C 
ATOM     14  C   UNL     1       1.134  -0.749   0.000  1.00  0.00     0.006 C 
ATOM     15  C   UNL     1       2.633  -0.806   0.000  1.00  0.00    -0.020 C 
ATOM     16  C   UNL     1       1.834  -2.075   0.000  1.00  0.00     0.012 C 
ATOM     17  C   UNL     1       3.333  -2.133   0.000  1.00  0.00     0.042 C 
ATOM     18  C   UNL     1       4.832  -2.190   0.000  1.00  0.00     0.144 C 
ATOM     19  C   UNL     1       5.631  -0.921   0.000  1.00  0.00     0.151 C 
ATOM     20  C   UNL     1       4.931   0.406   0.000  1.00  0.00     0.025 C 
ATOM     21  C   UNL     1       4.727   1.892   0.000  1.00  0.00     0.017 C 
ATOM     22  C   UNL     1       3.432   0.464   0.000  1.00  0.00     0.035 C 
ATOM     23  C   UNL     1       2.732   1.790   0.000  1.00  0.00     0.119 C 
ATOM     24  C   UNL     1       1.233   1.847   0.000  1.00  0.00     0.040 C 
ATOM     25  C   UNL     1       0.434   0.578   0.000  1.00  0.00    -0.017 C 
ATOM     26  C   UNL     1      -0.266   1.905   0.000  1.00  0.00     0.013 C 
ATOM     27  C   UNL     1      -3.362  -0.577   0.000  1.00  0.00     0.033 C 
ATOM     28  C   UNL     1      -4.162  -1.846   0.000  1.00  0.00     0.015 C 
ENDROOT
BRANCH   6  29
ATOM     29  C   UNL     1      -4.762   2.077   0.000  1.00  0.00     0.310 C 
ATOM     30  O   UNL     1      -6.261   2.134   0.000  1.00  0.00    -0.252 OA
BRANCH  29  31
ATOM     31  O   UNL     1      -3.963   3.346   0.000  1.00  0.00    -0.481 OA
ATOM     32  H   UNL     1       0.000   0.000   0.000  1.00  0.00     0.296 HD
ENDBRANCH  29  31
ENDBRANCH   6  29
BRANCH  23  33
ATOM     33  O   UNL     1       3.531   3.060   0.000  1.00  0.00    -0.393 OA
ATOM     34  H   UNL     1       0.000   0.000   0.000  1.00  0.00     0.210 HD
ENDBRANCH  23  33
BRANCH  20  35
ATOM     35  C   UNL     1       6.359   0.865   0.000  1.00  0.00     0.166 C 
BRANCH  35  36
ATOM     36  O   UNL     1       6.676   2.331   0.000  1.00  0.00    -0.396 OA
ATOM     37  H   UNL     1       0.000   0.000   0.000  1.00  0.00     0.210 HD
ENDBRANCH  35  36
ENDBRANCH  20  35
BRANCH  18  38
ATOM     38  O   UNL     1       5.532  -3.517   0.000  1.00  0.00    -0.390 OA
ATOM     39  H   UNL     1       0.000   0.000   0.000  1.00  0.00     0.211 HD
ENDBRANCH  18  38
BRANCH  19  40
ATOM     40  O   UNL     1       7.130  -0.978   0.000  1.00  0.00    -0.390 OA
ATOM     41  H   UNL     1       0.000   0.000   0.000  1.00  0.00     0.211 HD
ENDBRANCH  19  40
TORSDOF 7
