REMARK SMILES C=C[C@H]1[C@@H](/C(=C/O)C(=O)OC)C[C@H]2c3[nH]c4ccccc4c3CCN2[C@H]1O[C@@H]1O[C@H](CO)[C@@H](O)[C@H](O)[C@H]1O
REMARK SMILES IDX 3 1 4 2 12 3 13 4 14 5 22 6 23 7 24 8 25 9 26 10 21 11 20 12
REMARK SMILES IDX 19 13 18 14 17 15 16 16 15 17 2 19 1 20 5 21 6 22 7 23 8 25
REMARK SMILES IDX 9 26 10 27 11 28 27 29 28 30 29 31 37 32 30 33 35 34 33 35
REMARK SMILES IDX 38 36 31 38 32 39 36 41 34 43
REMARK H PARENT 15 18 7 24 38 37 32 40 36 42 34 44
ROOT
ATOM      1  C   UNL     1      -1.833  -2.152   0.000  1.00  0.00     0.063 C 
ATOM      2  C   UNL     1      -2.899  -1.097   0.000  1.00  0.00     0.042 C 
ATOM      3  C   UNL     1      -2.518   0.354   0.000  1.00  0.00     0.035 C 
ATOM      4  C   UNL     1      -1.071   0.750   0.000  1.00  0.00     0.107 C 
ATOM      5  C   UNL     1      -0.691   2.201   0.000  1.00  0.00     0.037 A 
ATOM      6  C   UNL     1       0.756   2.596   0.000  1.00  0.00    -0.016 A 
ATOM      7  C   UNL     1       1.822   1.541   0.000  1.00  0.00     0.054 C 
ATOM      8  C   UNL     1       1.442   0.090   0.000  1.00  0.00     0.092 C 
ATOM      9  N   UNL     1      -0.005  -0.305   0.000  1.00  0.00    -0.269 NA
ATOM     10  C   UNL     1      -0.386  -1.756   0.000  1.00  0.00     0.200 C 
ATOM     11  C   UNL     1       0.827   4.095   0.000  1.00  0.00     0.003 A 
ATOM     12  C   UNL     1       1.988   5.045   0.000  1.00  0.00     0.010 A 
ATOM     13  C   UNL     1       1.745   6.525   0.000  1.00  0.00     0.001 A 
ATOM     14  C   UNL     1       0.342   7.055   0.000  1.00  0.00     0.002 A 
ATOM     15  C   UNL     1      -0.819   6.105   0.000  1.00  0.00     0.026 A 
ATOM     16  C   UNL     1      -0.576   4.625   0.000  1.00  0.00     0.046 A 
ATOM     17  N   UNL     1      -1.514   3.454   0.000  1.00  0.00    -0.357 N 
ATOM     18  H   UNL     1       0.000   0.000   0.000  1.00  0.00     0.166 HD
ENDROOT
BRANCH   1  19
ATOM     19  C   UNL     1      -2.214  -3.603   0.000  1.00  0.00    -0.027 C 
ATOM     20  C   UNL     1      -1.147  -4.658   0.000  1.00  0.00     0.004 C 
ENDBRANCH   1  19
BRANCH   2  21
ATOM     21  C   UNL     1      -4.346  -1.493   0.000  1.00  0.00     0.075 C 
BRANCH  21  22
ATOM     22  C   UNL     1      -4.727  -2.944   0.000  1.00  0.00     0.194 C 
BRANCH  22  23
ATOM     23  O   UNL     1      -6.173  -3.339   0.000  1.00  0.00    -0.515 OA
ATOM     24  H   UNL     1       0.000   0.000   0.000  1.00  0.00     0.292 HD
ENDBRANCH  22  23
ENDBRANCH  21  22
BRANCH  21  25
ATOM     25  C   UNL     1      -5.412  -0.438   0.000  1.00  0.00     0.337 C 
ATOM     26  O   UNL     1      -5.031   1.013   0.000  1.00  0.00    -0.246 OA
BRANCH  25  27
ATOM     27  O   UNL     1      -6.859  -0.833   0.000  1.00  0.00    -0.466 OA
ATOM     28  C   UNL     1      -7.925   0.222   0.000  1.00  0.00     0.282 C 
ENDBRANCH  25  27
ENDBRANCH  21  25
ENDBRANCH   2  21
BRANCH  10  29
ATOM     29  O   UNL     1       0.680  -2.812   0.000  1.00  0.00    -0.331 OA
BRANCH  29  30
ATOM     30  C   UNL     1       2.127  -2.416   0.000  1.00  0.00     0.284 C 
ATOM     31  O   UNL     1       2.508  -0.965   0.000  1.00  0.00    -0.341 OA
ATOM     32  C   UNL     1       3.193  -3.471   0.000  1.00  0.00     0.202 C 
ATOM     33  C   UNL     1       3.954  -0.569   0.000  1.00  0.00     0.178 C 
ATOM     34  C   UNL     1       4.640  -3.075   0.000  1.00  0.00     0.179 C 
ATOM     35  C   UNL     1       5.021  -1.624   0.000  1.00  0.00     0.177 C 
BRANCH  32  36
ATOM     36  O   UNL     1       2.812  -4.922   0.000  1.00  0.00    -0.385 OA
ATOM     37  H   UNL     1       0.000   0.000   0.000  1.00  0.00     0.211 HD
ENDBRANCH  32  36
BRANCH  33  38
ATOM     38  C   UNL     1       4.335   0.882   0.000  1.00  0.00     0.191 C 
BRANCH  38  39
ATOM     39  O   UNL     1       5.782   1.278   0.000  1.00  0.00    -0.394 OA
ATOM     40  H   UNL     1       0.000   0.000   0.000  1.00  0.00     0.210 HD
ENDBRANCH  38  39
ENDBRANCH  33  38
BRANCH  34  41
ATOM     41  O   UNL     1       5.706  -4.130   0.000  1.00  0.00    -0.387 OA
ATOM     42  H   UNL     1       0.000   0.000   0.000  1.00  0.00     0.211 HD
ENDBRANCH  34  41
BRANCH  35  43
ATOM     43  O   UNL     1       6.468  -1.228   0.000  1.00  0.00    -0.387 OA
ATOM     44  H   UNL     1       0.000   0.000   0.000  1.00  0.00     0.211 HD
ENDBRANCH  35  43
ENDBRANCH  29  30
ENDBRANCH  10  29
TORSDOF 13
