REMARK SMILES COC(=O)[C@H]1[C@H]2C=C[C@]3(O)CO[C@H](O[C@@H]1O)[C@@H]23
REMARK SMILES IDX 5 1 6 2 7 3 8 4 9 5 11 6 12 7 13 8 14 9 15 10 17 11 3 12
REMARK SMILES IDX 4 13 2 14 1 15 16 16 10 18
REMARK H PARENT 16 17 10 19
ROOT
ATOM      1  C   UNL     1       1.135   0.112   0.000  1.00  0.00     0.163 C 
ATOM      2  C   UNL     1      -0.163  -0.640   0.000  1.00  0.00     0.042 C 
ATOM      3  C   UNL     1      -0.473  -2.107   0.000  1.00  0.00    -0.023 C 
ATOM      4  C   UNL     1      -1.964  -2.266   0.000  1.00  0.00     0.006 C 
ATOM      5  C   UNL     1      -2.576  -0.896   0.000  1.00  0.00     0.114 C 
ATOM      6  C   UNL     1      -3.692   0.106   0.000  1.00  0.00     0.203 C 
ATOM      7  O   UNL     1      -3.084   1.477   0.000  1.00  0.00    -0.349 OA
ATOM      8  C   UNL     1      -1.465   1.609   0.000  1.00  0.00     0.260 C 
ATOM      9  O   UNL     1      -0.167   2.360   0.000  1.00  0.00    -0.323 OA
ATOM     10  C   UNL     1       1.133   1.612   0.000  1.00  0.00     0.264 C 
ATOM     11  C   UNL     1      -1.463   0.109   0.000  1.00  0.00     0.092 C 
ENDROOT
BRANCH   1  12
ATOM     12  C   UNL     1       2.435  -0.636   0.000  1.00  0.00     0.314 C 
ATOM     13  O   UNL     1       2.437  -2.136   0.000  1.00  0.00    -0.252 OA
BRANCH  12  14
ATOM     14  O   UNL     1       3.733   0.115   0.000  1.00  0.00    -0.469 OA
ATOM     15  C   UNL     1       5.033  -0.633   0.000  1.00  0.00     0.282 C 
ENDBRANCH  12  14
ENDBRANCH   1  12
BRANCH  10  16
ATOM     16  O   UNL     1       2.432   2.364   0.000  1.00  0.00    -0.367 OA
ATOM     17  H   UNL     1       0.000   0.000   0.000  1.00  0.00     0.213 HD
ENDBRANCH  10  16
BRANCH   5  18
ATOM     18  O   UNL     1      -3.293  -0.548   0.000  1.00  0.00    -0.383 OA
ATOM     19  H   UNL     1       0.000   0.000   0.000  1.00  0.00     0.211 HD
ENDBRANCH   5  18
TORSDOF 4
