REMARK SMILES COc1cc(C=Cc2ccc(OC)c(OC)c2)oc(=O)c1
REMARK SMILES IDX 6 1 5 2 3 3 21 4 4 5 19 6 18 7 20 8 2 9 1 10 7 11 8 12 9 13
REMARK SMILES IDX 17 14 10 15 14 16 11 17 15 18 16 19 12 20 13 21
REMARK H PARENT
ROOT
ATOM      1  C   UNL     1      -0.707   0.520   0.000  1.00  0.00     0.048 C 
ENDROOT
BRANCH   1   2
ATOM      2  C   UNL     1      -2.205   0.442   0.000  1.00  0.00     0.134 A 
ATOM      3  C   UNL     1      -4.384  -0.973   0.000  1.00  0.00     0.129 A 
ATOM      4  C   UNL     1      -5.201   0.285   0.000  1.00  0.00     0.140 A 
ATOM      5  C   UNL     1      -2.886  -0.894   0.000  1.00  0.00     0.093 A 
ATOM      6  C   UNL     1      -4.519   1.622   0.000  1.00  0.00     0.339 A 
ATOM      7  O   UNL     1      -3.022   1.700   0.000  1.00  0.00    -0.423 OA
ATOM      8  O   UNL     1      -5.336   2.880   0.000  1.00  0.00    -0.246 OA
BRANCH   3   9
ATOM      9  O   UNL     1      -5.065  -2.309   0.000  1.00  0.00    -0.496 OA
ATOM     10  C   UNL     1      -6.563  -2.388   0.000  1.00  0.00     0.278 C 
ENDBRANCH   3   9
ENDBRANCH   1   2
BRANCH   1  11
ATOM     11  C   UNL     1       0.110  -0.738   0.000  1.00  0.00     0.012 C 
BRANCH  11  12
ATOM     12  C   UNL     1       1.608  -0.659   0.000  1.00  0.00    -0.022 A 
ATOM     13  C   UNL     1       2.425  -1.917   0.000  1.00  0.00     0.012 A 
ATOM     14  C   UNL     1       2.289   0.677   0.000  1.00  0.00     0.058 A 
ATOM     15  C   UNL     1       3.923  -1.839   0.000  1.00  0.00     0.051 A 
ATOM     16  C   UNL     1       3.787   0.756   0.000  1.00  0.00     0.161 A 
ATOM     17  C   UNL     1       4.604  -0.502   0.000  1.00  0.00     0.160 A 
BRANCH  16  18
ATOM     18  O   UNL     1       4.468   2.092   0.000  1.00  0.00    -0.493 OA
ATOM     19  C   UNL     1       3.651   3.350   0.000  1.00  0.00     0.278 C 
ENDBRANCH  16  18
BRANCH  17  20
ATOM     20  O   UNL     1       6.102  -0.424   0.000  1.00  0.00    -0.493 OA
ATOM     21  C   UNL     1       6.919  -1.682   0.000  1.00  0.00     0.278 C 
ENDBRANCH  17  20
ENDBRANCH  11  12
ENDBRANCH   1  11
TORSDOF 6
