REMARK SMILES CC1(C)C=Cc2c(c3ccccc3[nH]c2=O)O1
REMARK SMILES IDX 1 1 2 2 3 3 4 4 5 5 6 6 7 7 17 8 8 9 9 10 10 11 11 12 12 13
REMARK SMILES IDX 13 14 14 15 15 16 16 17
REMARK H PARENT 14 18
ROOT
ATOM      1  C   UNL     1      -2.870  -2.448   0.000  1.00  0.00     0.061 C 
ATOM      2  C   UNL     1      -2.784  -0.950   0.000  1.00  0.00     0.122 C 
ATOM      3  C   UNL     1      -4.274  -1.126   0.000  1.00  0.00     0.061 C 
ATOM      4  C   UNL     1      -3.215   0.486   0.000  1.00  0.00     0.021 C 
ATOM      5  C   UNL     1      -2.187   1.579   0.000  1.00  0.00     0.017 C 
ATOM      6  C   UNL     1      -0.727   1.234   0.000  1.00  0.00     0.082 A 
ATOM      7  C   UNL     1      -0.296  -0.203   0.000  1.00  0.00     0.142 A 
ATOM      8  O   UNL     1      -1.324  -1.295   0.000  1.00  0.00    -0.482 OA
ATOM      9  C   UNL     1       1.164  -0.547   0.000  1.00  0.00     0.041 A 
ATOM     10  C   UNL     1       1.596  -1.984   0.000  1.00  0.00     0.014 A 
ATOM     11  C   UNL     1       3.056  -2.328   0.000  1.00  0.00     0.001 A 
ATOM     12  C   UNL     1       4.084  -1.236   0.000  1.00  0.00     0.002 A 
ATOM     13  C   UNL     1       3.652   0.201   0.000  1.00  0.00     0.027 A 
ATOM     14  C   UNL     1       2.193   0.545   0.000  1.00  0.00     0.052 A 
ATOM     15  N   UNL     1       1.761   1.982   0.000  1.00  0.00    -0.321 N 
ATOM     16  C   UNL     1       0.301   2.326   0.000  1.00  0.00     0.259 A 
ATOM     17  O   UNL     1      -0.131   3.763   0.000  1.00  0.00    -0.269 OA
ATOM     18  H   UNL     1       0.000   0.000   0.000  1.00  0.00     0.170 HD
ENDROOT
TORSDOF 0
