REMARK SMILES C/C=C/c1ccc(O[C@H](C)[C@@H](O)c2ccc(OC)c(OC)c2)c(OC)c1
REMARK SMILES IDX 8 1 7 2 4 3 5 4 26 5 6 6 23 7 3 8 2 9 1 10 24 11 25 12 9 13
REMARK SMILES IDX 10 14 11 15 12 16 13 18 14 19 22 20 15 21 19 22 16 23 20 24
REMARK SMILES IDX 21 25 17 26 18 27
REMARK H PARENT 12 17
ROOT
ATOM      1  O   UNL     1       1.252   2.438   0.000  1.00  0.00    -0.484 OA
ENDROOT
BRANCH   1   2
ATOM      2  C   UNL     1       2.240   1.309   0.000  1.00  0.00     0.161 A 
ATOM      3  C   UNL     1       4.216  -0.948   0.000  1.00  0.00    -0.022 A 
ATOM      4  C   UNL     1       2.745  -1.240   0.000  1.00  0.00     0.012 A 
ATOM      5  C   UNL     1       4.700   0.472   0.000  1.00  0.00     0.058 A 
ATOM      6  C   UNL     1       1.757  -0.111   0.000  1.00  0.00     0.051 A 
ATOM      7  C   UNL     1       3.712   1.600   0.000  1.00  0.00     0.161 A 
BRANCH   3   8
ATOM      8  C   UNL     1       5.204  -2.077   0.000  1.00  0.00     0.003 C 
BRANCH   8   9
ATOM      9  C   UNL     1       4.721  -3.497   0.000  1.00  0.00    -0.030 C 
ATOM     10  C   UNL     1       5.708  -4.626   0.000  1.00  0.00     0.035 C 
ENDBRANCH   8   9
ENDBRANCH   3   8
BRANCH   7  11
ATOM     11  O   UNL     1       4.195   3.020   0.000  1.00  0.00    -0.493 OA
ATOM     12  C   UNL     1       5.667   3.312   0.000  1.00  0.00     0.278 C 
ENDBRANCH   7  11
ENDBRANCH   1   2
BRANCH   1  13
ATOM     13  C   UNL     1      -0.219   2.147   0.000  1.00  0.00     0.203 C 
ATOM     14  C   UNL     1      -1.207   3.276   0.000  1.00  0.00     0.056 C 
BRANCH  13  15
ATOM     15  C   UNL     1      -0.703   0.727   0.000  1.00  0.00     0.185 C 
BRANCH  15  16
ATOM     16  O   UNL     1       0.285  -0.402   0.000  1.00  0.00    -0.385 OA
ATOM     17  H   UNL     1       0.000   0.000   0.000  1.00  0.00     0.211 HD
ENDBRANCH  15  16
BRANCH  15  18
ATOM     18  C   UNL     1      -2.174   0.436   0.000  1.00  0.00    -0.012 A 
ATOM     19  C   UNL     1      -3.162   1.564   0.000  1.00  0.00     0.010 A 
ATOM     20  C   UNL     1      -2.658  -0.984   0.000  1.00  0.00     0.057 A 
ATOM     21  C   UNL     1      -4.633   1.273   0.000  1.00  0.00     0.051 A 
ATOM     22  C   UNL     1      -4.129  -1.276   0.000  1.00  0.00     0.161 A 
ATOM     23  C   UNL     1      -5.117  -0.147   0.000  1.00  0.00     0.160 A 
BRANCH  22  24
ATOM     24  O   UNL     1      -4.613  -2.695   0.000  1.00  0.00    -0.493 OA
ATOM     25  C   UNL     1      -3.625  -3.824   0.000  1.00  0.00     0.278 C 
ENDBRANCH  22  24
BRANCH  23  26
ATOM     26  O   UNL     1      -6.588  -0.438   0.000  1.00  0.00    -0.493 OA
ATOM     27  C   UNL     1      -7.576   0.691   0.000  1.00  0.00     0.278 C 
ENDBRANCH  23  26
ENDBRANCH  15  18
ENDBRANCH  13  15
ENDBRANCH   1  13
TORSDOF 10
