REMARK SMILES COc1c(CCCCCCCCCCCCCC(C)(O)C(C)C)[nH]c2ccccc2c1=O
REMARK SMILES IDX 11 1 10 2 9 3 8 4 7 5 6 6 5 7 4 8 3 9 31 10 24 11 30 12
REMARK SMILES IDX 25 13 29 14 26 15 28 16 27 17 32 18 2 20 1 21 12 22 13 23
REMARK SMILES IDX 14 24 15 25 16 26 17 27 18 28 19 29 20 30 21 32 22 33 23 34
REMARK H PARENT 24 19 20 31
ROOT
ATOM      1  C   UNL     1      -2.841  -1.153   0.000  1.00  0.00     0.000 C 
ENDROOT
BRANCH   1   2
ATOM      2  C   UNL     1      -1.512  -0.458   0.000  1.00  0.00     0.000 C 
BRANCH   2   3
ATOM      3  C   UNL     1      -0.245  -1.261   0.000  1.00  0.00     0.000 C 
BRANCH   3   4
ATOM      4  C   UNL     1       1.084  -0.566   0.000  1.00  0.00     0.000 C 
BRANCH   4   5
ATOM      5  C   UNL     1       2.351  -1.370   0.000  1.00  0.00     0.000 C 
BRANCH   5   6
ATOM      6  C   UNL     1       3.680  -0.674   0.000  1.00  0.00     0.006 C 
BRANCH   6   7
ATOM      7  C   UNL     1       4.947  -1.478   0.000  1.00  0.00     0.058 C 
BRANCH   7   8
ATOM      8  C   UNL     1       6.276  -0.783   0.000  1.00  0.00     0.062 A 
ATOM      9  C   UNL     1       6.338   0.716   0.000  1.00  0.00     0.186 A 
ATOM     10  C   UNL     1       7.668   1.411   0.000  1.00  0.00     0.231 A 
ATOM     11  N   UNL     1       7.542  -1.587   0.000  1.00  0.00    -0.355 N 
ATOM     12  C   UNL     1       8.934   0.607   0.000  1.00  0.00     0.049 A 
ATOM     13  C   UNL     1       8.872  -0.892   0.000  1.00  0.00     0.050 A 
ATOM     14  C   UNL     1      10.264   1.302   0.000  1.00  0.00     0.014 A 
ATOM     15  C   UNL     1      10.138  -1.695   0.000  1.00  0.00     0.027 A 
ATOM     16  C   UNL     1      11.530   0.499   0.000  1.00  0.00     0.001 A 
ATOM     17  C   UNL     1      11.467  -1.000   0.000  1.00  0.00     0.002 A 
ATOM     18  O   UNL     1       7.730   2.909   0.000  1.00  0.00    -0.285 OA
ATOM     19  H   UNL     1       0.000   0.000   0.000  1.00  0.00     0.166 HD
BRANCH   9  20
ATOM     20  O   UNL     1       5.072   1.519   0.000  1.00  0.00    -0.491 OA
ATOM     21  C   UNL     1       5.135   3.018   0.000  1.00  0.00     0.278 C 
ENDBRANCH   9  20
ENDBRANCH   7   8
ENDBRANCH   6   7
ENDBRANCH   5   6
ENDBRANCH   4   5
ENDBRANCH   3   4
ENDBRANCH   2   3
ENDBRANCH   1   2
BRANCH   1  22
ATOM     22  C   UNL     1      -4.107  -0.349   0.000  1.00  0.00     0.000 C 
BRANCH  22  23
ATOM     23  C   UNL     1      -5.437  -1.044   0.000  1.00  0.00     0.000 C 
BRANCH  23  24
ATOM     24  C   UNL     1      -6.703  -0.240   0.000  1.00  0.00     0.000 C 
BRANCH  24  25
ATOM     25  C   UNL     1      -8.032  -0.935   0.000  1.00  0.00     0.000 C 
BRANCH  25  26
ATOM     26  C   UNL     1      -9.299  -0.132   0.000  1.00  0.00     0.003 C 
BRANCH  26  27
ATOM     27  C   UNL     1     -10.628  -0.827   0.000  1.00  0.00     0.035 C 
BRANCH  27  28
ATOM     28  C   UNL     1     -11.895  -0.023   0.000  1.00  0.00     0.064 C 
ATOM     29  C   UNL     1     -13.161   0.780   0.000  1.00  0.00     0.042 C 
BRANCH  28  30
ATOM     30  O   UNL     1     -12.698  -1.290   0.000  1.00  0.00    -0.390 OA
ATOM     31  H   UNL     1       0.000   0.000   0.000  1.00  0.00     0.211 HD
ENDBRANCH  28  30
BRANCH  28  32
ATOM     32  C   UNL     1     -11.091   1.243   0.000  1.00  0.00     0.014 C 
ATOM     33  C   UNL     1     -11.786   2.572   0.000  1.00  0.00     0.010 C 
ATOM     34  C   UNL     1      -9.592   1.181   0.000  1.00  0.00     0.010 C 
ENDBRANCH  28  32
ENDBRANCH  27  28
ENDBRANCH  26  27
ENDBRANCH  25  26
ENDBRANCH  24  25
ENDBRANCH  23  24
ENDBRANCH  22  23
ENDBRANCH   1  22
TORSDOF 17
