REMARK SMILES CC(C)[C@H](C)/C=C/[C@@H](C)[C@H]1CC[C@]23O[C@]24CC(=O)C2=CC(=O)CC[C@]2(C)[C@H]4CC[C@]13C
REMARK SMILES IDX 6 1 4 2 5 3 2 4 1 5 3 6 7 7 8 8 9 9 10 10 11 11 30 12 12 13
REMARK SMILES IDX 29 14 13 15 28 16 14 17 15 18 27 19 16 20 25 21 17 22 24 23
REMARK SMILES IDX 19 24 23 25 20 26 21 27 31 28 26 29 18 30 22 31
REMARK H PARENT
ROOT
ATOM      1  C   UNL     1       5.466   0.119   0.000  1.00  0.00    -0.028 C 
ENDROOT
BRANCH   1   2
ATOM      2  C   UNL     1       5.847   1.570   0.000  1.00  0.00     0.011 C 
ATOM      3  C   UNL     1       7.294   1.965   0.000  1.00  0.00     0.012 C 
BRANCH   2   4
ATOM      4  C   UNL     1       4.782   2.626   0.000  1.00  0.00    -0.011 C 
ATOM      5  C   UNL     1       5.163   4.076   0.000  1.00  0.00     0.008 C 
ATOM      6  C   UNL     1       3.335   2.230   0.000  1.00  0.00     0.008 C 
ENDBRANCH   2   4
ENDBRANCH   1   2
BRANCH   1   7
ATOM      7  C   UNL     1       4.019  -0.276   0.000  1.00  0.00    -0.028 C 
BRANCH   7   8
ATOM      8  C   UNL     1       3.638  -1.727   0.000  1.00  0.00     0.012 C 
ATOM      9  C   UNL     1       4.704  -2.782   0.000  1.00  0.00     0.012 C 
BRANCH   8  10
ATOM     10  C   UNL     1       2.191  -2.122   0.000  1.00  0.00     0.005 C 
ATOM     11  C   UNL     1       1.660  -3.525   0.000  1.00  0.00     0.008 C 
ATOM     12  C   UNL     1       1.020  -1.183   0.000  1.00  0.00     0.003 C 
ATOM     13  C   UNL     1       0.162  -3.454   0.000  1.00  0.00     0.039 C 
ATOM     14  C   UNL     1       0.935   0.314   0.000  1.00  0.00     0.010 C 
ATOM     15  C   UNL     1      -0.234  -2.006   0.000  1.00  0.00     0.104 C 
ATOM     16  C   UNL     1      -0.405   0.989   0.000  1.00  0.00     0.008 C 
ATOM     17  O   UNL     1      -1.488  -2.829   0.000  1.00  0.00    -0.361 OA
ATOM     18  C   UNL     1      -1.573  -1.332   0.000  1.00  0.00     0.109 C 
ATOM     19  C   UNL     1      -1.659   0.166   0.000  1.00  0.00     0.035 C 
ATOM     20  C   UNL     1      -2.827  -2.155   0.000  1.00  0.00     0.119 C 
ATOM     21  C   UNL     1      -2.999   0.840   0.000  1.00  0.00     0.002 C 
ATOM     22  C   UNL     1      -4.167  -1.480   0.000  1.00  0.00     0.162 C 
ATOM     23  C   UNL     1      -3.084   2.338   0.000  1.00  0.00     0.020 C 
ATOM     24  C   UNL     1      -4.253   0.017   0.000  1.00  0.00     0.005 C 
ATOM     25  C   UNL     1      -4.424   3.012   0.000  1.00  0.00     0.081 C 
ATOM     26  C   UNL     1      -5.593   0.692   0.000  1.00  0.00     0.055 C 
ATOM     27  C   UNL     1      -5.678   2.189   0.000  1.00  0.00     0.156 C 
ATOM     28  C   UNL     1       2.354  -0.496   0.000  1.00  0.00     0.015 C 
ATOM     29  C   UNL     1      -1.745   1.663   0.000  1.00  0.00     0.017 C 
ATOM     30  O   UNL     1      -5.421  -2.303   0.000  1.00  0.00    -0.294 OA
ATOM     31  O   UNL     1      -7.018   2.864   0.000  1.00  0.00    -0.295 OA
ENDBRANCH   8  10
ENDBRANCH   7   8
ENDBRANCH   1   7
TORSDOF 5
