REMARK SMILES CNc1ccccc1C(=O)O[C@H]1CC[C@]2(C)[C@H]3CC[C@]45C[C@]4(CC[C@H]5[C@@H]4C[C@H]([C@H](O)C(C)(C)O)OC4O)[C@]3(C)[C@H](O)C[C@H]2C1(C)C
REMARK SMILES IDX 12 1 13 2 14 3 15 4 16 5 17 6 18 7 19 8 20 9 21 10 22 11
REMARK SMILES IDX 23 12 24 13 25 14 38 15 39 16 40 17 42 18 43 19 44 20 45 21
REMARK SMILES IDX 46 22 11 23 9 24 10 25 8 26 3 27 4 28 5 29 7 30 6 31 2 32
REMARK SMILES IDX 1 33 41 35 26 37 27 38 36 39 28 40 35 41 37 42 29 44 30 45
REMARK SMILES IDX 31 47 32 48 33 49 34 50
REMARK H PARENT 2 34 41 36 37 43 30 46 34 51
ROOT
ATOM      1  C   UNL     1      -4.372   0.109   0.000  1.00  0.00     0.182 C 
ATOM      2  C   UNL     1      -3.451   1.293   0.000  1.00  0.00     0.046 C 
ATOM      3  C   UNL     1      -1.966   1.087   0.000  1.00  0.00     0.011 C 
ATOM      4  C   UNL     1      -1.401  -0.302   0.000  1.00  0.00    -0.025 C 
ATOM      5  C   UNL     1      -0.480   0.882   0.000  1.00  0.00     0.012 C 
ATOM      6  C   UNL     1       0.085  -0.508   0.000  1.00  0.00     0.004 C 
ATOM      7  C   UNL     1       1.006   0.676   0.000  1.00  0.00     0.005 C 
ATOM      8  C   UNL     1       2.492   0.470   0.000  1.00  0.00     0.008 C 
ATOM      9  C   UNL     1       3.057  -0.919   0.000  1.00  0.00    -0.020 C 
ATOM     10  C   UNL     1       3.622  -2.309   0.000  1.00  0.00     0.016 C 
ATOM     11  C   UNL     1       2.136  -2.103   0.000  1.00  0.00    -0.015 C 
ATOM     12  C   UNL     1       2.977  -3.345   0.000  1.00  0.00     0.008 C 
ATOM     13  C   UNL     1       4.418  -2.929   0.000  1.00  0.00     0.005 C 
ATOM     14  C   UNL     1       4.467  -1.430   0.000  1.00  0.00     0.004 C 
ATOM     15  C   UNL     1       0.650  -1.898   0.000  1.00  0.00     0.003 C 
ATOM     16  C   UNL     1       1.214  -3.287   0.000  1.00  0.00     0.015 C 
ATOM     17  C   UNL     1      -0.271  -3.082   0.000  1.00  0.00     0.121 C 
ATOM     18  C   UNL     1      -1.757  -2.876   0.000  1.00  0.00     0.037 C 
ATOM     19  C   UNL     1      -2.322  -1.486   0.000  1.00  0.00     0.007 C 
ATOM     20  C   UNL     1      -3.808  -1.280   0.000  1.00  0.00     0.005 C 
ATOM     21  C   UNL     1      -5.274  -1.595   0.000  1.00  0.00     0.015 C 
ATOM     22  C   UNL     1      -3.752  -2.779   0.000  1.00  0.00     0.015 C 
ENDROOT
BRANCH   1  23
ATOM     23  O   UNL     1      -5.858   0.315   0.000  1.00  0.00    -0.458 OA
BRANCH  23  24
ATOM     24  C   UNL     1      -6.423   1.705   0.000  1.00  0.00     0.340 C 
ATOM     25  O   UNL     1      -5.502   2.889   0.000  1.00  0.00    -0.246 OA
BRANCH  24  26
ATOM     26  C   UNL     1      -7.909   1.910   0.000  1.00  0.00     0.083 A 
ATOM     27  C   UNL     1      -8.830   0.727   0.000  1.00  0.00     0.048 A 
ATOM     28  C   UNL     1     -10.316   0.932   0.000  1.00  0.00     0.026 A 
ATOM     29  C   UNL     1     -10.880   2.322   0.000  1.00  0.00     0.002 A 
ATOM     30  C   UNL     1      -8.473   3.300   0.000  1.00  0.00     0.018 A 
ATOM     31  C   UNL     1      -9.959   3.506   0.000  1.00  0.00     0.001 A 
BRANCH  27  32
ATOM     32  N   UNL     1      -8.265  -0.663   0.000  1.00  0.00    -0.387 N 
ATOM     33  C   UNL     1      -9.186  -1.847   0.000  1.00  0.00     0.139 C 
ATOM     34  H   UNL     1       0.000   0.000   0.000  1.00  0.00     0.160 HD
ENDBRANCH  27  32
ENDBRANCH  24  26
ENDBRANCH  23  24
ENDBRANCH   1  23
BRANCH  17  35
ATOM     35  O   UNL     1       0.293  -4.471   0.000  1.00  0.00    -0.393 OA
ATOM     36  H   UNL     1       0.000   0.000   0.000  1.00  0.00     0.210 HD
ENDBRANCH  17  35
BRANCH  14  37
ATOM     37  C   UNL     1       5.709  -0.588   0.000  1.00  0.00     0.052 C 
ATOM     38  C   UNL     1       5.758   0.911   0.000  1.00  0.00     0.044 C 
ATOM     39  C   UNL     1       7.120  -1.099   0.000  1.00  0.00     0.250 C 
ATOM     40  C   UNL     1       7.199   1.327   0.000  1.00  0.00     0.153 C 
ATOM     41  O   UNL     1       8.041   0.085   0.000  1.00  0.00    -0.347 OA
BRANCH  39  42
ATOM     42  O   UNL     1       7.536  -2.540   0.000  1.00  0.00    -0.368 OA
ATOM     43  H   UNL     1       0.000   0.000   0.000  1.00  0.00     0.213 HD
ENDBRANCH  39  42
BRANCH  40  44
ATOM     44  C   UNL     1       7.710   2.738   0.000  1.00  0.00     0.174 C 
BRANCH  44  45
ATOM     45  O   UNL     1       6.743   3.885   0.000  1.00  0.00    -0.387 OA
ATOM     46  H   UNL     1       0.000   0.000   0.000  1.00  0.00     0.211 HD
ENDBRANCH  44  45
BRANCH  44  47
ATOM     47  C   UNL     1       9.186   3.001   0.000  1.00  0.00     0.087 C 
ATOM     48  C   UNL     1       9.450   1.525   0.000  1.00  0.00     0.044 C 
ATOM     49  C   UNL     1       8.923   4.478   0.000  1.00  0.00     0.044 C 
BRANCH  47  50
ATOM     50  O   UNL     1      10.663   3.265   0.000  1.00  0.00    -0.388 OA
ATOM     51  H   UNL     1       0.000   0.000   0.000  1.00  0.00     0.211 HD
ENDBRANCH  47  50
ENDBRANCH  44  47
ENDBRANCH  40  44
ENDBRANCH  14  37
TORSDOF 11
