REMARK SMILES CC(=O)c1c(C)cc2cc(O)cc(O)c2c1O
REMARK SMILES IDX 4 1 5 2 6 3 7 4 8 5 9 6 10 7 12 8 13 9 15 10 16 11 2 12 1 13
REMARK SMILES IDX 3 14 17 15 14 17 11 19
REMARK H PARENT 17 16 14 18 11 20
ROOT
ATOM      1  C   UNL     1      -1.850  -0.102   0.000  1.00  0.00     0.063 A 
ATOM      2  C   UNL     1      -1.555  -1.572   0.000  1.00  0.00    -0.036 A 
ATOM      3  C   UNL     1      -2.680  -2.563   0.000  1.00  0.00     0.045 C 
ATOM      4  C   UNL     1      -0.133  -2.052   0.000  1.00  0.00     0.013 A 
ATOM      5  C   UNL     1       0.993  -1.061   0.000  1.00  0.00    -0.007 A 
ATOM      6  C   UNL     1       2.414  -1.540   0.000  1.00  0.00     0.055 A 
ATOM      7  C   UNL     1       3.540  -0.549   0.000  1.00  0.00     0.119 A 
ATOM      8  C   UNL     1       3.244   0.922   0.000  1.00  0.00     0.093 A 
ATOM      9  C   UNL     1       1.823   1.401   0.000  1.00  0.00     0.130 A 
ATOM     10  C   UNL     1       0.697   0.410   0.000  1.00  0.00     0.066 A 
ATOM     11  C   UNL     1      -0.724   0.889   0.000  1.00  0.00     0.138 A 
ENDROOT
BRANCH   1  12
ATOM     12  C   UNL     1      -3.272   0.378   0.000  1.00  0.00     0.163 C 
ATOM     13  C   UNL     1      -3.567   1.848   0.000  1.00  0.00     0.093 C 
ATOM     14  O   UNL     1      -4.397  -0.614   0.000  1.00  0.00    -0.294 OA
ENDBRANCH   1  12
BRANCH  11  15
ATOM     15  O   UNL     1      -1.020   2.360   0.000  1.00  0.00    -0.506 OA
ATOM     16  H   UNL     1       0.000   0.000   0.000  1.00  0.00     0.293 HD
ENDBRANCH  11  15
BRANCH   9  17
ATOM     17  O   UNL     1       1.527   2.872   0.000  1.00  0.00    -0.507 OA
ATOM     18  H   UNL     1       0.000   0.000   0.000  1.00  0.00     0.293 HD
ENDBRANCH   9  17
BRANCH   7  19
ATOM     19  O   UNL     1       4.961  -1.028   0.000  1.00  0.00    -0.508 OA
ATOM     20  H   UNL     1       0.000   0.000   0.000  1.00  0.00     0.293 HD
ENDBRANCH   7  19
TORSDOF 4
