REMARK SMILES C=CC[C@]12C[C@@H](OC)C(=O)C=C1O[C@H](c1ccc3c(c1)OCO3)[C@H]2C
REMARK SMILES IDX 4 1 5 2 6 3 9 4 10 5 11 6 12 7 13 8 14 9 24 10 25 11 3 12
REMARK SMILES IDX 2 13 1 14 7 15 8 16 15 17 16 18 20 19 17 20 19 21 18 22
REMARK SMILES IDX 21 23 23 24 22 25
REMARK H PARENT
ROOT
ATOM      1  C   UNL     1       1.683   0.049   0.000  1.00  0.00     0.041 C 
ATOM      2  C   UNL     1       3.111  -0.411   0.000  1.00  0.00     0.056 C 
ATOM      3  C   UNL     1       4.223   0.596   0.000  1.00  0.00     0.190 C 
ATOM      4  C   UNL     1       3.907   2.062   0.000  1.00  0.00     0.187 C 
ATOM      5  O   UNL     1       5.019   3.068   0.000  1.00  0.00    -0.292 OA
ATOM      6  C   UNL     1       2.479   2.522   0.000  1.00  0.00     0.092 C 
ATOM      7  C   UNL     1       1.367   1.515   0.000  1.00  0.00     0.108 C 
ATOM      8  O   UNL     1      -0.125   1.668   0.000  1.00  0.00    -0.489 OA
ATOM      9  C   UNL     1      -0.732   0.296   0.000  1.00  0.00     0.207 C 
ATOM     10  C   UNL     1       0.386  -0.705   0.000  1.00  0.00     0.046 C 
ATOM     11  C   UNL     1       0.233  -2.197   0.000  1.00  0.00     0.013 C 
ENDROOT
BRANCH   1  12
ATOM     12  C   UNL     1       1.843  -1.442   0.000  1.00  0.00     0.042 C 
BRANCH  12  13
ATOM     13  C   UNL     1       3.215  -2.049   0.000  1.00  0.00    -0.034 C 
ATOM     14  C   UNL     1       3.376  -3.541   0.000  1.00  0.00     0.004 C 
ENDBRANCH  12  13
ENDBRANCH   1  12
BRANCH   3  15
ATOM     15  O   UNL     1       5.651   0.136   0.000  1.00  0.00    -0.373 OA
ATOM     16  C   UNL     1       5.966  -1.331   0.000  1.00  0.00     0.195 C 
ENDBRANCH   3  15
BRANCH   9  17
ATOM     17  C   UNL     1      -2.198  -0.019   0.000  1.00  0.00    -0.003 A 
ATOM     18  C   UNL     1      -2.658  -1.447   0.000  1.00  0.00     0.011 A 
ATOM     19  C   UNL     1      -3.204   1.093   0.000  1.00  0.00     0.058 A 
ATOM     20  C   UNL     1      -4.124  -1.763   0.000  1.00  0.00     0.051 A 
ATOM     21  C   UNL     1      -4.671   0.777   0.000  1.00  0.00     0.166 A 
ATOM     22  C   UNL     1      -5.131  -0.650   0.000  1.00  0.00     0.165 A 
ATOM     23  O   UNL     1      -5.887   1.656   0.000  1.00  0.00    -0.454 OA
ATOM     24  O   UNL     1      -6.631  -0.654   0.000  1.00  0.00    -0.454 OA
ATOM     25  C   UNL     1      -7.098   0.771   0.000  1.00  0.00     0.468 C 
ENDBRANCH   9  17
TORSDOF 4
