REMARK SMILES COc1ccc(CCC(=O)O)c(O)c1[C@H](O)[C@H](O)C(C)(C)O
REMARK SMILES IDX 3 1 4 2 5 3 6 4 12 5 14 6 2 7 1 8 15 9 16 10 17 12 18 13
REMARK SMILES IDX 19 15 20 16 21 17 22 18 13 20 7 22 8 23 9 24 10 25 11 26
REMARK H PARENT 16 11 18 14 22 19 13 21 11 27
ROOT
ATOM      1  C   UNL     1       0.861  -1.767   0.000  1.00  0.00     0.128 A 
ATOM      2  C   UNL     1      -0.155  -2.870   0.000  1.00  0.00     0.047 A 
ATOM      3  C   UNL     1      -1.618  -2.542   0.000  1.00  0.00     0.011 A 
ATOM      4  C   UNL     1      -2.066  -1.110   0.000  1.00  0.00    -0.005 A 
ATOM      5  C   UNL     1      -1.050  -0.007   0.000  1.00  0.00     0.128 A 
ATOM      6  C   UNL     1       0.414  -0.335   0.000  1.00  0.00     0.067 A 
ENDROOT
BRANCH   1   7
ATOM      7  O   UNL     1       2.325  -2.095   0.000  1.00  0.00    -0.496 OA
ATOM      8  C   UNL     1       2.772  -3.527   0.000  1.00  0.00     0.278 C 
ENDBRANCH   1   7
BRANCH   6   9
ATOM      9  C   UNL     1       1.430   0.768   0.000  1.00  0.00     0.183 C 
BRANCH   9  10
ATOM     10  O   UNL     1       0.983   2.200   0.000  1.00  0.00    -0.385 OA
ATOM     11  H   UNL     1       0.000   0.000   0.000  1.00  0.00     0.211 HD
ENDBRANCH   9  10
BRANCH   9  12
ATOM     12  C   UNL     1       2.894   0.440   0.000  1.00  0.00     0.179 C 
BRANCH  12  13
ATOM     13  O   UNL     1       3.341  -0.992   0.000  1.00  0.00    -0.387 OA
ATOM     14  H   UNL     1       0.000   0.000   0.000  1.00  0.00     0.211 HD
ENDBRANCH  12  13
BRANCH  12  15
ATOM     15  C   UNL     1       3.910   1.543   0.000  1.00  0.00     0.088 C 
ATOM     16  C   UNL     1       2.807   2.560   0.000  1.00  0.00     0.045 C 
ATOM     17  C   UNL     1       5.013   0.527   0.000  1.00  0.00     0.045 C 
BRANCH  15  18
ATOM     18  O   UNL     1       4.926   2.647   0.000  1.00  0.00    -0.388 OA
ATOM     19  H   UNL     1       0.000   0.000   0.000  1.00  0.00     0.211 HD
ENDBRANCH  15  18
ENDBRANCH  12  15
ENDBRANCH   9  12
ENDBRANCH   6   9
BRANCH   5  20
ATOM     20  O   UNL     1      -1.497   1.425   0.000  1.00  0.00    -0.507 OA
ATOM     21  H   UNL     1       0.000   0.000   0.000  1.00  0.00     0.293 HD
ENDBRANCH   5  20
BRANCH   4  22
ATOM     22  C   UNL     1      -3.529  -0.782   0.000  1.00  0.00     0.051 C 
BRANCH  22  23
ATOM     23  C   UNL     1      -3.977   0.650   0.000  1.00  0.00     0.127 C 
BRANCH  23  24
ATOM     24  C   UNL     1      -5.441   0.979   0.000  1.00  0.00     0.303 C 
ATOM     25  O   UNL     1      -6.457  -0.125   0.000  1.00  0.00    -0.252 OA
BRANCH  24  26
ATOM     26  O   UNL     1      -5.888   2.410   0.000  1.00  0.00    -0.481 OA
ATOM     27  H   UNL     1       0.000   0.000   0.000  1.00  0.00     0.296 HD
ENDBRANCH  24  26
ENDBRANCH  23  24
ENDBRANCH  22  23
ENDBRANCH   4  22
TORSDOF 12
