REMARK SMILES COc1cc([C@@H]2Oc3c(OC)cc(CCCO)cc3[C@H]2CO)ccc1O
REMARK SMILES IDX 14 1 13 2 6 3 7 4 20 5 8 6 19 7 9 8 18 9 12 10 5 11 3 12
REMARK SMILES IDX 4 13 25 14 24 15 23 16 2 17 1 18 26 19 21 21 22 22 10 24
REMARK SMILES IDX 11 25 15 26 16 27 17 28
REMARK H PARENT 26 20 22 23 17 29
ROOT
ATOM      1  C   UNL     1       4.977   1.534   0.000  1.00  0.00     0.038 C 
ENDROOT
BRANCH   1   2
ATOM      2  C   UNL     1       3.735   0.692   0.000  1.00  0.00    -0.044 A 
ATOM      3  C   UNL     1      -1.104  -0.409   0.000  1.00  0.00     0.214 C 
ATOM      4  O   UNL     1      -0.138  -1.556   0.000  1.00  0.00    -0.481 OA
ATOM      5  C   UNL     1      -0.312   0.865   0.000  1.00  0.00     0.094 C 
ATOM      6  C   UNL     1       1.252  -0.991   0.000  1.00  0.00     0.165 A 
ATOM      7  C   UNL     1       1.144   0.505   0.000  1.00  0.00     0.008 A 
ATOM      8  C   UNL     1       2.601  -1.645   0.000  1.00  0.00     0.161 A 
ATOM      9  C   UNL     1       2.386   1.347   0.000  1.00  0.00     0.012 A 
ATOM     10  C   UNL     1       3.843  -0.804   0.000  1.00  0.00     0.054 A 
BRANCH   3  11
ATOM     11  C   UNL     1      -2.600  -0.517   0.000  1.00  0.00    -0.003 A 
ATOM     12  C   UNL     1      -4.938   0.617   0.000  1.00  0.00     0.160 A 
ATOM     13  C   UNL     1      -3.442   0.725   0.000  1.00  0.00     0.058 A 
ATOM     14  C   UNL     1      -5.593  -0.733   0.000  1.00  0.00     0.157 A 
ATOM     15  C   UNL     1      -4.751  -1.974   0.000  1.00  0.00     0.050 A 
ATOM     16  C   UNL     1      -3.255  -1.866   0.000  1.00  0.00     0.011 A 
BRANCH  12  17
ATOM     17  O   UNL     1      -5.780   1.859   0.000  1.00  0.00    -0.493 OA
ATOM     18  C   UNL     1      -7.276   1.751   0.000  1.00  0.00     0.278 C 
ENDBRANCH  12  17
BRANCH  14  19
ATOM     19  O   UNL     1      -7.089  -0.841   0.000  1.00  0.00    -0.504 OA
ATOM     20  H   UNL     1       0.000   0.000   0.000  1.00  0.00     0.293 HD
ENDBRANCH  14  19
ENDBRANCH   3  11
BRANCH   5  21
ATOM     21  C   UNL     1      -0.877   2.255   0.000  1.00  0.00     0.168 C 
BRANCH  21  22
ATOM     22  O   UNL     1      -2.363   2.460   0.000  1.00  0.00    -0.396 OA
ATOM     23  H   UNL     1       0.000   0.000   0.000  1.00  0.00     0.210 HD
ENDBRANCH  21  22
ENDBRANCH   5  21
BRANCH   8  24
ATOM     24  O   UNL     1       2.709  -3.142   0.000  1.00  0.00    -0.493 OA
ATOM     25  C   UNL     1       4.059  -3.796   0.000  1.00  0.00     0.278 C 
ENDBRANCH   8  24
ENDBRANCH   1   2
BRANCH   1  26
ATOM     26  C   UNL     1       6.327   0.879   0.000  1.00  0.00     0.033 C 
BRANCH  26  27
ATOM     27  C   UNL     1       7.568   1.720   0.000  1.00  0.00     0.156 C 
BRANCH  27  28
ATOM     28  O   UNL     1       8.918   1.066   0.000  1.00  0.00    -0.396 OA
ATOM     29  H   UNL     1       0.000   0.000   0.000  1.00  0.00     0.210 HD
ENDBRANCH  27  28
ENDBRANCH  26  27
ENDBRANCH   1  26
TORSDOF 10
