REMARK SMILES CC(=O)O[C@H]1C[C@]2(C)C(=CCC3[C@@]4(C)CC[C@@H](OC(C)=O)C(C)(C)C4CC[C@]32C)C2CC(C)(C)CC[C@@]21C
REMARK SMILES IDX 5 1 6 2 7 3 8 4 9 5 10 6 11 7 12 8 13 9 14 10 15 11 16 12
REMARK SMILES IDX 17 13 22 14 23 15 24 16 25 17 26 18 27 19 28 20 29 21 30 22
REMARK SMILES IDX 31 23 32 24 33 25 34 26 35 27 36 28 37 29 38 30 4 31 2 32
REMARK SMILES IDX 1 33 3 34 18 35 19 36 20 37 21 38
REMARK H PARENT
ROOT
ATOM      1  C   UNL     1       3.651   1.275   0.000  1.00  0.00     0.184 C 
ATOM      2  C   UNL     1       2.166   1.487   0.000  1.00  0.00     0.057 C 
ATOM      3  C   UNL     1       1.240   0.307   0.000  1.00  0.00    -0.002 C 
ATOM      4  C   UNL     1       2.725   0.095   0.000  1.00  0.00     0.017 C 
ATOM      5  C   UNL     1       1.799  -1.085   0.000  1.00  0.00    -0.064 C 
ATOM      6  C   UNL     1       0.873  -2.265   0.000  1.00  0.00    -0.027 C 
ATOM      7  C   UNL     1      -0.612  -2.054   0.000  1.00  0.00     0.032 C 
ATOM      8  C   UNL     1      -1.171  -0.662   0.000  1.00  0.00     0.006 C 
ATOM      9  C   UNL     1      -2.656  -0.450   0.000  1.00  0.00    -0.025 C 
ATOM     10  C   UNL     1      -2.097  -1.842   0.000  1.00  0.00     0.012 C 
ATOM     11  C   UNL     1      -3.582  -1.630   0.000  1.00  0.00     0.011 C 
ATOM     12  C   UNL     1      -5.067  -1.419   0.000  1.00  0.00     0.046 C 
ATOM     13  C   UNL     1      -5.626  -0.027   0.000  1.00  0.00     0.182 C 
ATOM     14  C   UNL     1      -4.700   1.153   0.000  1.00  0.00     0.005 C 
ATOM     15  C   UNL     1      -4.234   2.579   0.000  1.00  0.00     0.015 C 
ATOM     16  C   UNL     1      -6.023   1.860   0.000  1.00  0.00     0.015 C 
ATOM     17  C   UNL     1      -3.215   0.942   0.000  1.00  0.00     0.005 C 
ATOM     18  C   UNL     1      -2.289   2.122   0.000  1.00  0.00     0.005 C 
ATOM     19  C   UNL     1      -0.804   1.910   0.000  1.00  0.00     0.008 C 
ATOM     20  C   UNL     1      -0.245   0.518   0.000  1.00  0.00    -0.020 C 
ATOM     21  C   UNL     1       0.681   1.699   0.000  1.00  0.00     0.012 C 
ATOM     22  C   UNL     1       3.284  -1.297   0.000  1.00  0.00     0.025 C 
ATOM     23  C   UNL     1       3.843  -2.689   0.000  1.00  0.00     0.015 C 
ATOM     24  C   UNL     1       5.328  -2.901   0.000  1.00  0.00    -0.035 C 
ATOM     25  C   UNL     1       6.651  -3.607   0.000  1.00  0.00     0.011 C 
ATOM     26  C   UNL     1       4.862  -4.326   0.000  1.00  0.00     0.011 C 
ATOM     27  C   UNL     1       6.254  -1.720   0.000  1.00  0.00     0.007 C 
ATOM     28  C   UNL     1       5.695  -0.328   0.000  1.00  0.00     0.012 C 
ATOM     29  C   UNL     1       4.210  -0.117   0.000  1.00  0.00     0.011 C 
ATOM     30  C   UNL     1       5.136   1.063   0.000  1.00  0.00     0.016 C 
ENDROOT
BRANCH   1  31
ATOM     31  O   UNL     1       4.577   2.455   0.000  1.00  0.00    -0.462 OA
BRANCH  31  32
ATOM     32  C   UNL     1       4.017   3.847   0.000  1.00  0.00     0.302 C 
ATOM     33  C   UNL     1       4.943   5.027   0.000  1.00  0.00     0.139 C 
ATOM     34  O   UNL     1       2.532   4.059   0.000  1.00  0.00    -0.253 OA
ENDBRANCH  31  32
ENDBRANCH   1  31
BRANCH  13  35
ATOM     35  O   UNL     1      -7.111   0.185   0.000  1.00  0.00    -0.462 OA
BRANCH  35  36
ATOM     36  C   UNL     1      -8.037  -0.995   0.000  1.00  0.00     0.302 C 
ATOM     37  C   UNL     1      -9.522  -0.784   0.000  1.00  0.00     0.139 C 
ATOM     38  O   UNL     1      -7.478  -2.387   0.000  1.00  0.00    -0.253 OA
ENDBRANCH  35  36
ENDBRANCH  13  35
TORSDOF 4
