REMARK SMILES COc1cc2oc(-c3ccc(OC)c(Oc4ccccc4)c3Oc3ccccc3)c(OC)c(=O)c2c(O)c1O
REMARK SMILES IDX 3 1 4 2 5 3 35 4 36 5 38 6 33 7 34 8 30 9 7 10 6 11 2 12
REMARK SMILES IDX 1 13 39 14 37 16 8 18 9 19 22 20 10 21 14 22 11 23 23 24
REMARK SMILES IDX 24 25 25 26 29 27 26 28 28 29 27 30 15 31 16 32 17 33 21 34
REMARK SMILES IDX 18 35 20 36 19 37 12 38 13 39 31 40 32 41
REMARK H PARENT 39 15 37 17
ROOT
ATOM      1  C   UNL     1       4.199  -1.594   0.000  1.00  0.00     0.168 A 
ATOM      2  C   UNL     1       2.708  -1.433   0.000  1.00  0.00     0.098 A 
ATOM      3  C   UNL     1       2.102  -0.060   0.000  1.00  0.00     0.146 A 
ATOM      4  C   UNL     1       2.987   1.150   0.000  1.00  0.00     0.115 A 
ATOM      5  C   UNL     1       4.479   0.989   0.000  1.00  0.00     0.176 A 
ATOM      6  C   UNL     1       5.084  -0.384   0.000  1.00  0.00     0.201 A 
ATOM      7  C   UNL     1       2.382   2.523   0.000  1.00  0.00     0.239 A 
ATOM      8  O   UNL     1       3.267   3.733   0.000  1.00  0.00    -0.285 OA
ATOM      9  C   UNL     1       0.890   2.684   0.000  1.00  0.00     0.211 A 
ATOM     10  C   UNL     1       0.005   1.474   0.000  1.00  0.00     0.184 A 
ATOM     11  O   UNL     1       0.611   0.101   0.000  1.00  0.00    -0.451 OA
ENDROOT
BRANCH   1  12
ATOM     12  O   UNL     1       4.804  -2.966   0.000  1.00  0.00    -0.493 OA
ATOM     13  C   UNL     1       3.919  -4.177   0.000  1.00  0.00     0.278 C 
ENDBRANCH   1  12
BRANCH   6  14
ATOM     14  O   UNL     1       6.576  -0.545   0.000  1.00  0.00    -0.502 OA
ATOM     15  H   UNL     1       0.000   0.000   0.000  1.00  0.00     0.293 HD
ENDBRANCH   6  14
BRANCH   5  16
ATOM     16  O   UNL     1       5.364   2.200   0.000  1.00  0.00    -0.504 OA
ATOM     17  H   UNL     1       0.000   0.000   0.000  1.00  0.00     0.293 HD
ENDBRANCH   5  16
BRANCH  10  18
ATOM     18  C   UNL     1      -1.486   1.635   0.000  1.00  0.00     0.068 A 
ATOM     19  C   UNL     1      -2.092   3.007   0.000  1.00  0.00     0.020 A 
ATOM     20  C   UNL     1      -2.372   0.425   0.000  1.00  0.00     0.184 A 
ATOM     21  C   UNL     1      -3.583   3.169   0.000  1.00  0.00     0.051 A 
ATOM     22  C   UNL     1      -3.863   0.586   0.000  1.00  0.00     0.212 A 
ATOM     23  C   UNL     1      -4.469   1.958   0.000  1.00  0.00     0.165 A 
BRANCH  20  24
ATOM     24  O   UNL     1      -1.766  -0.948   0.000  1.00  0.00    -0.453 OA
BRANCH  24  25
ATOM     25  C   UNL     1      -0.275  -1.109   0.000  1.00  0.00     0.127 A 
ATOM     26  C   UNL     1       0.611   0.101   0.000  1.00  0.00     0.047 A 
ATOM     27  C   UNL     1       0.331  -2.482   0.000  1.00  0.00     0.047 A 
ATOM     28  C   UNL     1       2.102  -0.060   0.000  1.00  0.00     0.004 A 
ATOM     29  C   UNL     1       1.822  -2.643   0.000  1.00  0.00     0.004 A 
ATOM     30  C   UNL     1       2.708  -1.433   0.000  1.00  0.00     0.000 A 
ENDBRANCH  24  25
ENDBRANCH  20  24
BRANCH  22  31
ATOM     31  O   UNL     1      -4.749  -0.625   0.000  1.00  0.00    -0.449 OA
BRANCH  31  32
ATOM     32  C   UNL     1      -4.143  -1.997   0.000  1.00  0.00     0.127 A 
ATOM     33  C   UNL     1      -5.029  -3.208   0.000  1.00  0.00     0.047 A 
ATOM     34  C   UNL     1      -2.652  -2.158   0.000  1.00  0.00     0.047 A 
ATOM     35  C   UNL     1      -4.423  -4.580   0.000  1.00  0.00     0.004 A 
ATOM     36  C   UNL     1      -2.046  -3.531   0.000  1.00  0.00     0.004 A 
ATOM     37  C   UNL     1      -2.932  -4.741   0.000  1.00  0.00     0.000 A 
ENDBRANCH  31  32
ENDBRANCH  22  31
BRANCH  23  38
ATOM     38  O   UNL     1      -5.960   2.120   0.000  1.00  0.00    -0.493 OA
ATOM     39  C   UNL     1      -6.566   3.492   0.000  1.00  0.00     0.278 C 
ENDBRANCH  23  38
ENDBRANCH  10  18
BRANCH   9  40
ATOM     40  O   UNL     1       0.285   4.057   0.000  1.00  0.00    -0.490 OA
ATOM     41  C   UNL     1       1.171   5.267   0.000  1.00  0.00     0.278 C 
ENDBRANCH   9  40
TORSDOF 10
