REMARK SMILES C[C@@H]1O[C@@H](Oc2c(-c3cc(O)c(O)c(O)c3)oc3cc(O)cc(O)c3c2=O)[C@H](O)[C@H](O)[C@H]1O
REMARK SMILES IDX 6 1 7 2 17 3 18 4 19 5 20 6 22 7 23 8 25 9 26 10 27 11 5 12
REMARK SMILES IDX 4 13 2 14 3 15 32 16 30 17 28 18 1 19 33 20 31 22 29 24 8 26
REMARK SMILES IDX 9 27 16 28 10 29 14 30 12 31 11 32 15 34 13 36 24 38 21 40
REMARK H PARENT 33 21 31 23 29 25 11 33 15 35 13 37 24 39 21 41
ROOT
ATOM      1  C   UNL     1      -0.138  -0.297   0.000  1.00  0.00     0.214 A 
ATOM      2  C   UNL     1      -1.556  -0.787   0.000  1.00  0.00     0.181 A 
ATOM      3  O   UNL     1      -1.841  -2.260   0.000  1.00  0.00    -0.452 OA
ATOM      4  C   UNL     1      -0.708  -3.243   0.000  1.00  0.00     0.146 A 
ATOM      5  C   UNL     1      -0.993  -4.715   0.000  1.00  0.00     0.094 A 
ATOM      6  C   UNL     1       0.140  -5.699   0.000  1.00  0.00     0.123 A 
ATOM      7  C   UNL     1       1.558  -5.209   0.000  1.00  0.00     0.093 A 
ATOM      8  C   UNL     1       1.843  -3.737   0.000  1.00  0.00     0.134 A 
ATOM      9  C   UNL     1       0.710  -2.753   0.000  1.00  0.00     0.111 A 
ATOM     10  C   UNL     1       0.995  -1.281   0.000  1.00  0.00     0.239 A 
ATOM     11  O   UNL     1       2.413  -0.791   0.000  1.00  0.00    -0.285 OA
ENDROOT
BRANCH   1  12
ATOM     12  O   UNL     1       0.147   1.175   0.000  1.00  0.00    -0.454 OA
BRANCH  12  13
ATOM     13  C   UNL     1       1.565   1.665   0.000  1.00  0.00     0.339 C 
ATOM     14  C   UNL     1       4.116   1.171   0.000  1.00  0.00     0.151 C 
ATOM     15  O   UNL     1       2.698   0.681   0.000  1.00  0.00    -0.335 OA
ATOM     16  C   UNL     1       4.401   2.643   0.000  1.00  0.00     0.174 C 
ATOM     17  C   UNL     1       3.268   3.627   0.000  1.00  0.00     0.180 C 
ATOM     18  C   UNL     1       1.850   3.137   0.000  1.00  0.00     0.214 C 
ATOM     19  C   UNL     1       5.249   0.188   0.000  1.00  0.00     0.042 C 
BRANCH  16  20
ATOM     20  O   UNL     1       5.819   3.133   0.000  1.00  0.00    -0.388 OA
ATOM     21  H   UNL     1       0.000   0.000   0.000  1.00  0.00     0.211 HD
ENDBRANCH  16  20
BRANCH  17  22
ATOM     22  O   UNL     1       3.554   5.099   0.000  1.00  0.00    -0.387 OA
ATOM     23  H   UNL     1       0.000   0.000   0.000  1.00  0.00     0.211 HD
ENDBRANCH  17  22
BRANCH  18  24
ATOM     24  O   UNL     1       0.718   4.120   0.000  1.00  0.00    -0.384 OA
ATOM     25  H   UNL     1       0.000   0.000   0.000  1.00  0.00     0.211 HD
ENDBRANCH  18  24
ENDBRANCH  12  13
ENDBRANCH   1  12
BRANCH   2  26
ATOM     26  C   UNL     1      -2.688   0.197   0.000  1.00  0.00     0.029 A 
ATOM     27  C   UNL     1      -2.403   1.669   0.000  1.00  0.00     0.062 A 
ATOM     28  C   UNL     1      -4.106  -0.293   0.000  1.00  0.00     0.062 A 
ATOM     29  C   UNL     1      -3.536   2.652   0.000  1.00  0.00     0.162 A 
ATOM     30  C   UNL     1      -5.239   0.690   0.000  1.00  0.00     0.162 A 
ATOM     31  C   UNL     1      -4.954   2.163   0.000  1.00  0.00     0.200 A 
BRANCH  29  32
ATOM     32  O   UNL     1      -3.251   4.125   0.000  1.00  0.00    -0.504 OA
ATOM     33  H   UNL     1       0.000   0.000   0.000  1.00  0.00     0.293 HD
ENDBRANCH  29  32
BRANCH  30  34
ATOM     34  O   UNL     1      -6.657   0.201   0.000  1.00  0.00    -0.504 OA
ATOM     35  H   UNL     1       0.000   0.000   0.000  1.00  0.00     0.293 HD
ENDBRANCH  30  34
BRANCH  31  36
ATOM     36  O   UNL     1      -6.087   3.146   0.000  1.00  0.00    -0.502 OA
ATOM     37  H   UNL     1       0.000   0.000   0.000  1.00  0.00     0.293 HD
ENDBRANCH  31  36
ENDBRANCH   2  26
BRANCH   8  38
ATOM     38  O   UNL     1       3.261  -3.247   0.000  1.00  0.00    -0.507 OA
ATOM     39  H   UNL     1       0.000   0.000   0.000  1.00  0.00     0.293 HD
ENDBRANCH   8  38
BRANCH   6  40
ATOM     40  O   UNL     1      -0.145  -7.171   0.000  1.00  0.00    -0.508 OA
ATOM     41  H   UNL     1       0.000   0.000   0.000  1.00  0.00     0.293 HD
ENDBRANCH   6  40
TORSDOF 11
