REMARK SMILES C=C1C[C@@]23CC[C@@H]4C(C)(C)CCC[C@@]4(C)[C@]2(O)CC[C@@H]1C3
REMARK SMILES IDX 1 1 2 2 3 3 4 4 5 5 6 6 7 7 8 8 9 9 10 10 11 11 12 12 13 13
REMARK SMILES IDX 14 14 15 15 16 16 18 17 19 18 20 19 21 20 17 21
REMARK H PARENT 17 22
ROOT
ATOM      1  C   UNL     1      -4.994  -1.334   0.000  1.00  0.00     0.008 C 
ATOM      2  C   UNL     1      -3.607  -0.762   0.000  1.00  0.00    -0.074 C 
ATOM      3  C   UNL     1      -2.329  -1.548   0.000  1.00  0.00     0.040 C 
ATOM      4  C   UNL     1      -1.187  -0.576   0.000  1.00  0.00     0.004 C 
ATOM      5  C   UNL     1      -0.474  -1.895   0.000  1.00  0.00     0.011 C 
ATOM      6  C   UNL     1       1.026  -1.937   0.000  1.00  0.00     0.005 C 
ATOM      7  C   UNL     1       1.812  -0.659   0.000  1.00  0.00     0.003 C 
ATOM      8  C   UNL     1       3.311  -0.701   0.000  1.00  0.00    -0.032 C 
ATOM      9  C   UNL     1       4.706  -1.253   0.000  1.00  0.00     0.011 C 
ATOM     10  C   UNL     1       3.009  -2.170   0.000  1.00  0.00     0.011 C 
ATOM     11  C   UNL     1       4.097   0.577   0.000  1.00  0.00     0.007 C 
ATOM     12  C   UNL     1       3.383   1.896   0.000  1.00  0.00     0.001 C 
ATOM     13  C   UNL     1       1.884   1.938   0.000  1.00  0.00     0.010 C 
ATOM     14  C   UNL     1       1.098   0.660   0.000  1.00  0.00     0.000 C 
ATOM     15  C   UNL     1       0.385   1.980   0.000  1.00  0.00     0.015 C 
ATOM     16  C   UNL     1      -0.401   0.702   0.000  1.00  0.00     0.076 C 
ATOM     17  C   UNL     1      -1.115   2.022   0.000  1.00  0.00     0.037 C 
ATOM     18  C   UNL     1      -2.614   2.063   0.000  1.00  0.00     0.011 C 
ATOM     19  C   UNL     1      -3.400   0.786   0.000  1.00  0.00     0.015 C 
ATOM     20  C   UNL     1      -2.687  -0.534   0.000  1.00  0.00     0.018 C 
ENDROOT
BRANCH  16  21
ATOM     21  O   UNL     1      -1.901   0.744   0.000  1.00  0.00    -0.389 OA
ATOM     22  H   UNL     1       0.000   0.000   0.000  1.00  0.00     0.211 HD
ENDBRANCH  16  21
TORSDOF 1
