REMARK SMILES COc1cc(OC)c2c(=O)c(OC)c(-c3cc(OC)c(OC)cc3OC)oc2c1
REMARK SMILES IDX 3 1 4 2 5 3 8 4 9 5 10 6 11 7 14 8 27 9 28 10 29 11 2 12
REMARK SMILES IDX 1 13 6 14 7 15 15 16 16 17 24 18 17 19 23 20 20 21 25 22
REMARK SMILES IDX 26 23 18 24 19 25 21 26 22 27 12 28 13 29
REMARK H PARENT
ROOT
ATOM      1  C   UNL     1      -4.549  -1.646   0.000  1.00  0.00     0.126 A 
ATOM      2  C   UNL     1      -5.059  -0.235   0.000  1.00  0.00     0.093 A 
ATOM      3  C   UNL     1      -4.093   0.912   0.000  1.00  0.00     0.137 A 
ATOM      4  C   UNL     1      -2.616   0.649   0.000  1.00  0.00     0.111 A 
ATOM      5  C   UNL     1      -1.650   1.796   0.000  1.00  0.00     0.239 A 
ATOM      6  O   UNL     1      -2.160   3.206   0.000  1.00  0.00    -0.285 OA
ATOM      7  C   UNL     1      -0.173   1.532   0.000  1.00  0.00     0.211 A 
ATOM      8  C   UNL     1       0.337   0.122   0.000  1.00  0.00     0.184 A 
ATOM      9  O   UNL     1      -0.629  -1.025   0.000  1.00  0.00    -0.451 OA
ATOM     10  C   UNL     1      -2.106  -0.762   0.000  1.00  0.00     0.146 A 
ATOM     11  C   UNL     1      -3.072  -1.909   0.000  1.00  0.00     0.094 A 
ENDROOT
BRANCH   1  12
ATOM     12  O   UNL     1      -5.516  -2.793   0.000  1.00  0.00    -0.496 OA
ATOM     13  C   UNL     1      -6.992  -2.530   0.000  1.00  0.00     0.278 C 
ENDBRANCH   1  12
BRANCH   3  14
ATOM     14  O   UNL     1      -4.603   2.322   0.000  1.00  0.00    -0.496 OA
ATOM     15  C   UNL     1      -6.080   2.586   0.000  1.00  0.00     0.278 C 
ENDBRANCH   3  14
BRANCH   8  16
ATOM     16  C   UNL     1       1.814  -0.141   0.000  1.00  0.00     0.067 A 
ATOM     17  C   UNL     1       2.780   1.006   0.000  1.00  0.00     0.066 A 
ATOM     18  C   UNL     1       2.324  -1.552   0.000  1.00  0.00     0.133 A 
ATOM     19  C   UNL     1       4.257   0.743   0.000  1.00  0.00     0.161 A 
ATOM     20  C   UNL     1       3.801  -1.815   0.000  1.00  0.00     0.097 A 
ATOM     21  C   UNL     1       4.767  -0.668   0.000  1.00  0.00     0.164 A 
BRANCH  18  22
ATOM     22  O   UNL     1       1.358  -2.699   0.000  1.00  0.00    -0.496 OA
ATOM     23  C   UNL     1       1.868  -4.110   0.000  1.00  0.00     0.278 C 
ENDBRANCH  18  22
BRANCH  19  24
ATOM     24  O   UNL     1       5.223   1.890   0.000  1.00  0.00    -0.493 OA
ATOM     25  C   UNL     1       4.713   3.300   0.000  1.00  0.00     0.278 C 
ENDBRANCH  19  24
BRANCH  21  26
ATOM     26  O   UNL     1       6.244  -0.931   0.000  1.00  0.00    -0.493 OA
ATOM     27  C   UNL     1       6.754  -2.342   0.000  1.00  0.00     0.278 C 
ENDBRANCH  21  26
ENDBRANCH   8  16
BRANCH   7  28
ATOM     28  O   UNL     1       0.793   2.680   0.000  1.00  0.00    -0.490 OA
ATOM     29  C   UNL     1       2.270   2.416   0.000  1.00  0.00     0.278 C 
ENDBRANCH   7  28
TORSDOF 7
