REMARK SMILES COc1cccc2c3c(c(=O)[nH]c12)[C@H](O)[C@@H](O)C(C)(C)O3
REMARK SMILES IDX 3 1 4 2 5 3 6 4 7 5 13 6 12 7 10 8 11 9 9 10 8 11 21 12
REMARK SMILES IDX 18 13 19 14 20 15 16 16 14 17 2 19 1 20 15 21 17 23
REMARK H PARENT 12 18 15 22 17 24
ROOT
ATOM      1  C   UNL     1      -3.485   0.065   0.000  1.00  0.00     0.143 A 
ATOM      2  C   UNL     1      -3.927   1.498   0.000  1.00  0.00     0.049 A 
ATOM      3  C   UNL     1      -2.906   2.597   0.000  1.00  0.00     0.005 A 
ATOM      4  C   UNL     1      -1.444   2.263   0.000  1.00  0.00     0.014 A 
ATOM      5  C   UNL     1      -1.002   0.830   0.000  1.00  0.00     0.045 A 
ATOM      6  C   UNL     1      -2.023  -0.270   0.000  1.00  0.00     0.095 A 
ATOM      7  N   UNL     1      -1.581  -1.703   0.000  1.00  0.00    -0.318 N 
ATOM      8  C   UNL     1      -0.119  -2.037   0.000  1.00  0.00     0.258 A 
ATOM      9  O   UNL     1       0.323  -3.471   0.000  1.00  0.00    -0.269 OA
ATOM     10  C   UNL     1       0.902  -0.938   0.000  1.00  0.00     0.091 A 
ATOM     11  C   UNL     1       0.460   0.496   0.000  1.00  0.00     0.141 A 
ATOM     12  O   UNL     1       1.481   1.595   0.000  1.00  0.00    -0.484 OA
ATOM     13  C   UNL     1       2.943   1.261   0.000  1.00  0.00     0.132 C 
ATOM     14  C   UNL     1       4.431   1.447   0.000  1.00  0.00     0.059 C 
ATOM     15  C   UNL     1       3.018   2.759   0.000  1.00  0.00     0.059 C 
ATOM     16  C   UNL     1       3.385  -0.173   0.000  1.00  0.00     0.191 C 
ATOM     17  C   UNL     1       2.364  -1.272   0.000  1.00  0.00     0.186 C 
ATOM     18  H   UNL     1       0.000   0.000   0.000  1.00  0.00     0.170 HD
ENDROOT
BRANCH   1  19
ATOM     19  O   UNL     1      -4.506  -1.035   0.000  1.00  0.00    -0.495 OA
ATOM     20  C   UNL     1      -5.968  -0.701   0.000  1.00  0.00     0.278 C 
ENDBRANCH   1  19
BRANCH  17  21
ATOM     21  O   UNL     1       2.806  -2.705   0.000  1.00  0.00    -0.385 OA
ATOM     22  H   UNL     1       0.000   0.000   0.000  1.00  0.00     0.211 HD
ENDBRANCH  17  21
BRANCH  16  23
ATOM     23  O   UNL     1       4.847  -0.507   0.000  1.00  0.00    -0.386 OA
ATOM     24  H   UNL     1       0.000   0.000   0.000  1.00  0.00     0.211 HD
ENDBRANCH  16  23
TORSDOF 3
