REMARK SMILES COC1=CC(=O)C[C@@H](C)[C@]12Oc1c(Cl)c(OC)cc(OC)c1C2=O
REMARK SMILES IDX 3 1 4 2 5 3 6 4 7 5 8 6 9 7 10 8 11 9 12 10 13 11 14 12
REMARK SMILES IDX 15 13 18 14 19 15 22 16 23 17 24 18 2 19 1 20 20 21 21 22
REMARK SMILES IDX 16 23 17 24
REMARK H PARENT
ROOT
ATOM      1  C   UNL     1      -2.301  -0.840   0.000  1.00  0.00     0.151 C 
ATOM      2  C   UNL     1      -3.798  -0.744   0.000  1.00  0.00     0.093 C 
ATOM      3  C   UNL     1      -4.463   0.601   0.000  1.00  0.00     0.159 C 
ATOM      4  O   UNL     1      -5.959   0.698   0.000  1.00  0.00    -0.295 OA
ATOM      5  C   UNL     1      -3.630   1.849   0.000  1.00  0.00     0.089 C 
ATOM      6  C   UNL     1      -2.134   1.752   0.000  1.00  0.00     0.054 C 
ATOM      7  C   UNL     1      -1.301   3.001   0.000  1.00  0.00     0.013 C 
ATOM      8  C   UNL     1      -1.469   0.408   0.000  1.00  0.00     0.231 C 
ATOM      9  O   UNL     1      -0.511   1.562   0.000  1.00  0.00    -0.468 OA
ATOM     10  C   UNL     1       0.883   1.007   0.000  1.00  0.00     0.158 A 
ATOM     11  C   UNL     1       2.228   1.672   0.000  1.00  0.00     0.126 A 
ATOM     12  Cl  UNL     1       2.324   3.169   0.000  1.00  0.00    -0.076 Cl
ATOM     13  C   UNL     1       3.476   0.840   0.000  1.00  0.00     0.144 A 
ATOM     14  C   UNL     1       3.379  -0.657   0.000  1.00  0.00     0.095 A 
ATOM     15  C   UNL     1       2.034  -1.322   0.000  1.00  0.00     0.137 A 
ATOM     16  C   UNL     1       0.786  -0.489   0.000  1.00  0.00     0.108 A 
ATOM     17  C   UNL     1      -0.667  -0.860   0.000  1.00  0.00     0.222 C 
ATOM     18  O   UNL     1      -0.786  -1.738   0.000  1.00  0.00    -0.289 OA
ENDROOT
BRANCH   1  19
ATOM     19  O   UNL     1      -1.636  -2.185   0.000  1.00  0.00    -0.496 OA
ATOM     20  C   UNL     1      -2.468  -3.433   0.000  1.00  0.00     0.278 C 
ENDBRANCH   1  19
BRANCH  15  21
ATOM     21  O   UNL     1       1.938  -2.818   0.000  1.00  0.00    -0.496 OA
ATOM     22  C   UNL     1       3.186  -3.651   0.000  1.00  0.00     0.278 C 
ENDBRANCH  15  21
BRANCH  13  23
ATOM     23  O   UNL     1       4.820   1.505   0.000  1.00  0.00    -0.495 OA
ATOM     24  C   UNL     1       6.068   0.672   0.000  1.00  0.00     0.278 C 
ENDBRANCH  13  23
TORSDOF 3
